<configuration>
    <input>
        <net-file value="ring.net.xml"/>
        <additional-files value="bunched.add.xml,persons.add.xml"/>
    </input>
</configuration>