<?xml version="1.0" encoding="UTF-8"?>

<!-- generated on 2024-06-21 23:07:34.747573 by randomtrips.py v1_14_1+0000-f654d7b963e
<configuration>
    <end value="3000"/>
    <insertion-density value="90.0"/>
    <net-file value="wang2020/sumo/ring.net.xml"/>
    <route-file value="wang2020/sumo/traffic90.rou.xml"/>
</configuration>
-->

<!-- generated on 2024-06-21 23:07:34 by Eclipse SUMO duarouter Version 1.14.1
<configuration xmlns:xsi="http://www.w3.org/2001/XMLSchema-instance" xsi:noNamespaceSchemaLocation="http://sumo.dlr.de/xsd/duarouterConfiguration.xsd">

    <input>
        <net-file value="wang2020/sumo/ring.net.xml"/>
        <route-files value="trips.trips.xml"/>
    </input>

    <output>
        <output-file value="wang2020/sumo/traffic90.rou.xml"/>
        <alternatives-output value="NUL"/>
    </output>

    <time>
        <begin value="0"/>
        <end value="3000"/>
    </time>

    <report>
        <no-warnings value="true"/>
        <ignore-errors value="true"/>
        <no-step-log value="true"/>
    </report>

</configuration>
-->

<routes xmlns:xsi="http://www.w3.org/2001/XMLSchema-instance" xsi:noNamespaceSchemaLocation="http://sumo.dlr.de/xsd/routes_file.xsd">
    <vehicle id="0" depart="0.00">
        <route edges="E13 E5 E6 E7 E8 9 10 11 0"/>
    </vehicle>
    <vehicle id="1" depart="2.07">
        <route edges="4 5 6 7 8 9 10 11 0 1 2 3"/>
    </vehicle>
    <vehicle id="2" depart="4.14">
        <route edges="E3 E14"/>
    </vehicle>
    <vehicle id="3" depart="6.21">
        <route edges="E7 E8 9 10"/>
    </vehicle>
    <vehicle id="4" depart="8.28">
        <route edges="8 9 10 11 0"/>
    </vehicle>
    <vehicle id="5" depart="10.35">
        <route edges="3 4 5 6 7 8 9 10 11 E0"/>
    </vehicle>
    <vehicle id="6" depart="12.42">
        <route edges="0 1 2"/>
    </vehicle>
    <vehicle id="7" depart="14.49">
        <route edges="E13 E5 E6 E7 E8 9 10 11 E0 E1"/>
    </vehicle>
    <vehicle id="8" depart="16.56">
        <route edges="3 E10"/>
    </vehicle>
    <vehicle id="9" depart="18.63">
        <route edges="E5 E6 E7 E8 9 10 11 0"/>
    </vehicle>
    <vehicle id="10" depart="20.70">
        <route edges="E5 E6 E7 E8 9 10 11 E0 E1 E2 E3 E14"/>
    </vehicle>
    <vehicle id="11" depart="22.76">
        <route edges="6 7 8 9 10 11"/>
    </vehicle>
    <vehicle id="12" depart="24.83">
        <route edges="E8 9 10 11 0 1 2 3 4 5 6"/>
    </vehicle>
    <vehicle id="13" depart="26.90">
        <route edges="10"/>
    </vehicle>
    <vehicle id="14" depart="28.97">
        <route edges="E6 E7 E8 9 10 11 0 1 2 3 E10"/>
    </vehicle>
    <vehicle id="15" depart="31.04">
        <route edges="E5 E6 E7 E8 9 10 11 E0 E1 E2"/>
    </vehicle>
    <vehicle id="16" depart="33.11">
        <route edges="E0 E1 E2 E3 E4 E5 E6 E7 E8"/>
    </vehicle>
    <vehicle id="17" depart="35.18">
        <route edges="7 8 9 10 11 E0 E1"/>
    </vehicle>
    <vehicle id="18" depart="37.25">
        <route edges="E5 E6 E7 E8 9 10 11 0 1 2 3 E10"/>
    </vehicle>
    <vehicle id="19" depart="39.32">
        <route edges="E6 E7 E8 9 10 11 E0 E1"/>
    </vehicle>
    <vehicle id="20" depart="41.39">
        <route edges="E2 E3 E4 E5 E6 E7 E8 9 10 11 0 1"/>
    </vehicle>
    <vehicle id="21" depart="43.46">
        <route edges="3 4"/>
    </vehicle>
    <vehicle id="22" depart="45.53">
        <route edges="1 2 3"/>
    </vehicle>
    <vehicle id="23" depart="47.60">
        <route edges="10 11 0 1 2 3 4"/>
    </vehicle>
    <vehicle id="24" depart="49.67">
        <route edges="E13 E5 E6 E7 E8 9 10 11 0 1 2 3 4 5 6"/>
    </vehicle>
    <vehicle id="25" depart="51.74">
        <route edges="6 7 8 9 10 11 0 1 2 3"/>
    </vehicle>
    <vehicle id="26" depart="53.81">
        <route edges="4 5 6 7 8 9 10 11 E0 E1 E2 E3 E4 E5 E6 E7"/>
    </vehicle>
    <vehicle id="27" depart="55.88">
        <route edges="E13 E5 E6 E7 E8 9 10 11 0 1 2 3 E10"/>
    </vehicle>
    <vehicle id="28" depart="57.95">
        <route edges="2 3 4 5 6 7 8 9 10 11 E0 E1 E2"/>
    </vehicle>
    <vehicle id="29" depart="60.02">
        <route edges="11 0 1 2 3 4 5 6 7"/>
    </vehicle>
    <vehicle id="30" depart="62.09">
        <route edges="E9 5 6 7 8 9 E11"/>
    </vehicle>
    <vehicle id="31" depart="64.16">
        <route edges="E1 E2 E3 E14"/>
    </vehicle>
    <vehicle id="32" depart="66.23">
        <route edges="E6 E7 E8 9 10 11 E0 E1 E2 E3"/>
    </vehicle>
    <vehicle id="33" depart="68.29">
        <route edges="3 4 5 6 7 8 9 10 11 0"/>
    </vehicle>
    <vehicle id="34" depart="70.36">
        <route edges="5 6 7 8 9 10 11 0 1 2 3 4"/>
    </vehicle>
    <vehicle id="35" depart="72.43">
        <route edges="3 4 5 6 7 8 9 10 11 E0 E1 E2 E3 E4 E5 E6 E7"/>
    </vehicle>
    <vehicle id="36" depart="74.50">
        <route edges="E7 E8 9 10 11 0 1 2 3 4 5"/>
    </vehicle>
    <vehicle id="37" depart="76.57">
        <route edges="E13 E5 E6 E7 E8 9 10 11 0 1 2 3 4 5 6 7"/>
    </vehicle>
    <vehicle id="38" depart="78.64">
        <route edges="E7 E8 9"/>
    </vehicle>
    <vehicle id="39" depart="80.71">
        <route edges="4 5 6 7 8 9 10 11 0 1 2 3"/>
    </vehicle>
    <vehicle id="40" depart="82.78">
        <route edges="E1 E2 E3 E4 E5 E6 E7 E8 9 10 11 0 1 2 3 4"/>
    </vehicle>
    <vehicle id="41" depart="84.85">
        <route edges="E12 11 E0 E1 E2 E3 E4 E5 E6"/>
    </vehicle>
    <vehicle id="42" depart="86.92">
        <route edges="7 8 9 10 11 0 1 2 3"/>
    </vehicle>
    <vehicle id="43" depart="88.99">
        <route edges="E9 5 6 7 8 9 10 11 E0"/>
    </vehicle>
    <vehicle id="44" depart="91.06">
        <route edges="10 11 0 1"/>
    </vehicle>
    <vehicle id="45" depart="93.13">
        <route edges="10 11 0 1 2 3 4 5 6 7 8 9 E11"/>
    </vehicle>
    <vehicle id="46" depart="95.20">
        <route edges="E5 E6 E7 E8 9 10 11 0 1 2 3 4 5 6 7 8"/>
    </vehicle>
    <vehicle id="47" depart="97.27">
        <route edges="1 2 3 4 5 6 7"/>
    </vehicle>
    <vehicle id="48" depart="99.34">
        <route edges="E9 5 6 7 8 9 10 11 E0"/>
    </vehicle>
    <vehicle id="49" depart="101.41">
        <route edges="E9 5 6 7 8 9 10 11 E0 E1 E2 E3 E4 E5"/>
    </vehicle>
    <vehicle id="50" depart="103.48">
        <route edges="0 1 2 3 4 5 6 7 8 9 10 11 E0 E1 E2"/>
    </vehicle>
    <vehicle id="51" depart="105.55">
        <route edges="E2 E3 E4 E5 E6 E7 E8 9 10 11 E0"/>
    </vehicle>
    <vehicle id="52" depart="107.62">
        <route edges="4 5 6 7 8 9 E11"/>
    </vehicle>
    <vehicle id="53" depart="109.69">
        <route edges="10 11 0 1 2 3 4 5 6 7 8"/>
    </vehicle>
    <vehicle id="54" depart="111.76">
        <route edges="8 9 10 11 E0 E1 E2 E3 E4 E5 E6 E7"/>
    </vehicle>
    <vehicle id="55" depart="113.82">
        <route edges="E7 E8 9 10 11 0 1 2 3 4"/>
    </vehicle>
    <vehicle id="56" depart="115.89">
        <route edges="E0 E1 E2 E3 E4 E5 E6 E7 E8 9 10 11 0 1 2"/>
    </vehicle>
    <vehicle id="57" depart="117.96">
        <route edges="E7 E8 9 10 11 E0 E1 E2 E3 E4 E5"/>
    </vehicle>
    <vehicle id="58" depart="120.03">
        <route edges="5 6 7 8 9 E11"/>
    </vehicle>
    <vehicle id="59" depart="122.10">
        <route edges="E12 11"/>
    </vehicle>
    <vehicle id="60" depart="124.17">
        <route edges="E4 E5 E6 E7 E8 9 10 11 E0"/>
    </vehicle>
    <vehicle id="61" depart="126.24">
        <route edges="E4 E5 E6 E7 E8 9 10 11 E0"/>
    </vehicle>
    <vehicle id="62" depart="128.31">
        <route edges="0 1 2 3 4 5"/>
    </vehicle>
    <vehicle id="63" depart="130.38">
        <route edges="0 1 2 3 4 5 6 7 8 9 10 11 E0 E1 E2 E3 E4 E5 E6 E7"/>
    </vehicle>
    <vehicle id="64" depart="132.45">
        <route edges="E7 E8 9 10 11 E0 E1 E2 E3 E4"/>
    </vehicle>
    <vehicle id="65" depart="134.52">
        <route edges="5 6 7 8 9 10 11 0 1"/>
    </vehicle>
    <vehicle id="66" depart="136.59">
        <route edges="E7"/>
    </vehicle>
    <vehicle id="67" depart="138.66">
        <route edges="10 11 0 1 2 3 4 5 6 7 8 9"/>
    </vehicle>
    <vehicle id="68" depart="140.73">
        <route edges="1 2 3 4 5 6 7 8 9 10 11 E0 E1 E2 E3"/>
    </vehicle>
    <vehicle id="69" depart="142.80">
        <route edges="E4 E5 E6 E7 E8 9 10 11"/>
    </vehicle>
    <vehicle id="70" depart="144.87">
        <route edges="9 10 11 E0 E1"/>
    </vehicle>
    <vehicle id="71" depart="146.94">
        <route edges="4 5 6 7 8 9 10 11 E0 E1 E2 E3 E4 E5"/>
    </vehicle>
    <vehicle id="72" depart="149.01">
        <route edges="8 9 10 11 0 1 2 3"/>
    </vehicle>
    <vehicle id="73" depart="151.08">
        <route edges="E0 E1 E2"/>
    </vehicle>
    <vehicle id="74" depart="153.15">
        <route edges="2 3 4 5"/>
    </vehicle>
    <vehicle id="75" depart="155.22">
        <route edges="E9 5 6 7 8 9 E11"/>
    </vehicle>
    <vehicle id="76" depart="157.29">
        <route edges="8 9 10 11 E0"/>
    </vehicle>
    <vehicle id="77" depart="159.35">
        <route edges="10 11 0 1 2 3"/>
    </vehicle>
    <vehicle id="78" depart="161.42">
        <route edges="6 7 8 9 10 11 0 1 2 3 E10"/>
    </vehicle>
    <vehicle id="79" depart="163.49">
        <route edges="3"/>
    </vehicle>
    <vehicle id="80" depart="165.56">
        <route edges="1 2 3 4 5 6 7 8 9 E11"/>
    </vehicle>
    <vehicle id="81" depart="167.63">
        <route edges="3 4 5 6 7 8 9 10 11 E0 E1 E2 E3 E4 E5 E6"/>
    </vehicle>
    <vehicle id="82" depart="169.70">
        <route edges="E6 E7 E8 9 10 11 0 1"/>
    </vehicle>
    <vehicle id="83" depart="171.77">
        <route edges="3 4 5 6 7 8 9 10 11 E0 E1 E2 E3 E14"/>
    </vehicle>
    <vehicle id="84" depart="173.84">
        <route edges="3 4 5 6 7 8 9 10 11"/>
    </vehicle>
    <vehicle id="85" depart="175.91">
        <route edges="E8 9 10 11 E0 E1"/>
    </vehicle>
    <vehicle id="86" depart="177.98">
        <route edges="9 10 11 E0 E1 E2 E3"/>
    </vehicle>
    <vehicle id="87" depart="180.05">
        <route edges="E5 E6 E7 E8 9 10 11 0 1 2"/>
    </vehicle>
    <vehicle id="88" depart="182.12">
        <route edges="10 11 0 1 2 3 4 5 6 7 8"/>
    </vehicle>
    <vehicle id="89" depart="184.19">
        <route edges="8 9"/>
    </vehicle>
    <vehicle id="90" depart="186.26">
        <route edges="E3 E14"/>
    </vehicle>
    <vehicle id="91" depart="188.33">
        <route edges="E9 5 6 7 8 9 10"/>
    </vehicle>
    <vehicle id="92" depart="190.40">
        <route edges="7 8 9 10 11 0 1 2 3 4 5 6"/>
    </vehicle>
    <vehicle id="93" depart="192.47">
        <route edges="E6 E7 E8 9 10 11 0 1 2 3"/>
    </vehicle>
    <vehicle id="94" depart="194.54">
        <route edges="2 3 4 5 6 7 8"/>
    </vehicle>
    <vehicle id="95" depart="196.61">
        <route edges="8 9 10 11 0 1 2 3 4"/>
    </vehicle>
    <vehicle id="96" depart="198.68">
        <route edges="3 4 5 6 7 8 9 10 11 E0 E1 E2 E3 E4 E5 E6 E7"/>
    </vehicle>
    <vehicle id="97" depart="200.75">
        <route edges="8 9 10 11 E0 E1 E2 E3 E4 E5"/>
    </vehicle>
    <vehicle id="98" depart="202.81">
        <route edges="E1 E2 E3 E4 E5 E6 E7 E8 9 10 11 0 1"/>
    </vehicle>
    <vehicle id="99" depart="204.88">
        <route edges="E9 5 6 7 8 9 10 11 E0 E1 E2 E3 E4 E5"/>
    </vehicle>
    <vehicle id="100" depart="206.95">
        <route edges="E9 5 6 7 8 9 10 11 E0 E1 E2 E3 E4 E5 E6 E7"/>
    </vehicle>
    <vehicle id="101" depart="209.02">
        <route edges="E6 E7 E8 9 10 11"/>
    </vehicle>
    <vehicle id="102" depart="211.09">
        <route edges="9 10 11 0 1 2 3"/>
    </vehicle>
    <vehicle id="103" depart="213.16">
        <route edges="7 8 9 10 11 0 1"/>
    </vehicle>
    <vehicle id="104" depart="215.23">
        <route edges="7 8 9 10 11 E0 E1 E2 E3 E4 E5 E6 E7 E8"/>
    </vehicle>
    <vehicle id="105" depart="217.30">
        <route edges="4 5 6 7 8 9 10 11 E0 E1 E2 E3"/>
    </vehicle>
    <vehicle id="106" depart="219.37">
        <route edges="8"/>
    </vehicle>
    <vehicle id="107" depart="221.44">
        <route edges="E8"/>
    </vehicle>
    <vehicle id="108" depart="223.51">
        <route edges="E1 E2"/>
    </vehicle>
    <vehicle id="109" depart="225.58">
        <route edges="11 0 1 2 3 4 5"/>
    </vehicle>
    <vehicle id="110" depart="227.65">
        <route edges="E9 5 6 7 8 9 10 11 E0 E1"/>
    </vehicle>
    <vehicle id="111" depart="229.72">
        <route edges="E1 E2"/>
    </vehicle>
    <vehicle id="112" depart="231.79">
        <route edges="1 2 3 E10"/>
    </vehicle>
    <vehicle id="113" depart="233.86">
        <route edges="E0 E1 E2 E3 E4 E5"/>
    </vehicle>
    <vehicle id="114" depart="235.93">
        <route edges="11 E0 E1 E2 E3 E4 E5 E6 E7 E8"/>
    </vehicle>
    <vehicle id="115" depart="238.00">
        <route edges="1 2"/>
    </vehicle>
    <vehicle id="116" depart="240.07">
        <route edges="E12 11 E0 E1 E2 E3 E14"/>
    </vehicle>
    <vehicle id="117" depart="242.14">
        <route edges="3 4 5 6 7 8 9 10"/>
    </vehicle>
    <vehicle id="118" depart="244.21">
        <route edges="E7 E8 9 10 11 0 1 2 3"/>
    </vehicle>
    <vehicle id="119" depart="246.28">
        <route edges="E12 11 0 1 2 3 E10"/>
    </vehicle>
    <vehicle id="120" depart="248.34">
        <route edges="8 9 10 11 0 1 2 3 E10"/>
    </vehicle>
    <vehicle id="121" depart="250.41">
        <route edges="E0 E1 E2 E3 E4 E5 E6 E7"/>
    </vehicle>
    <vehicle id="122" depart="252.48">
        <route edges="2 3 4 5 6 7 8 9 10 11 E0 E1 E2"/>
    </vehicle>
    <vehicle id="123" depart="254.55">
        <route edges="3 4 5 6 7"/>
    </vehicle>
    <vehicle id="124" depart="256.62">
        <route edges="E2 E3 E4 E5 E6 E7 E8 9 10 11 0 1 2 3 4 5"/>
    </vehicle>
    <vehicle id="125" depart="258.69">
        <route edges="5 6 7 8 9 10 11 E0 E1 E2 E3"/>
    </vehicle>
    <vehicle id="126" depart="260.76">
        <route edges="1 2 3 4 5 6 7 8"/>
    </vehicle>
    <vehicle id="127" depart="262.83">
        <route edges="E9 5 6 7 8 9 10 11 E0 E1 E2 E3 E4 E5 E6 E7 E8"/>
    </vehicle>
    <vehicle id="128" depart="264.90">
        <route edges="1 2 3"/>
    </vehicle>
    <vehicle id="129" depart="266.97">
        <route edges="4 5 6 7 8 9 10 11 E0 E1 E2 E3 E4 E5 E6 E7"/>
    </vehicle>
    <vehicle id="130" depart="269.04">
        <route edges="E7 E8 9 10 11 E0 E1 E2 E3 E4 E5 E6"/>
    </vehicle>
    <vehicle id="131" depart="271.11">
        <route edges="6 7 8 9 10 11"/>
    </vehicle>
    <vehicle id="132" depart="273.18">
        <route edges="E6 E7 E8 9 10 11 E0 E1 E2 E3 E14"/>
    </vehicle>
    <vehicle id="133" depart="275.25">
        <route edges="E12 11 E0 E1 E2 E3 E4 E5 E6 E7 E8"/>
    </vehicle>
    <vehicle id="134" depart="277.32">
        <route edges="E13 E5 E6 E7 E8 9 10 11 0"/>
    </vehicle>
    <vehicle id="135" depart="279.39">
        <route edges="E5 E6 E7 E8 9 10 11 0 1 2 3 4 5"/>
    </vehicle>
    <vehicle id="136" depart="281.46">
        <route edges="E13 E5 E6 E7"/>
    </vehicle>
    <vehicle id="137" depart="283.53">
        <route edges="11 0 1 2 3 4 5 6 7 8 9 10"/>
    </vehicle>
    <vehicle id="138" depart="285.60">
        <route edges="10 11 E0 E1"/>
    </vehicle>
    <vehicle id="139" depart="287.67">
        <route edges="4 5 6 7 8 9 10 11 0 1 2 3 E10"/>
    </vehicle>
    <vehicle id="140" depart="289.74">
        <route edges="E3 E4 E5 E6 E7 E8 9 10 11 0 1 2"/>
    </vehicle>
    <vehicle id="141" depart="291.81">
        <route edges="E13 E5 E6 E7 E8 9 10 11 0 1 2 3 4"/>
    </vehicle>
    <vehicle id="142" depart="293.87">
        <route edges="9 10 11 E0 E1 E2 E3 E4 E5 E6"/>
    </vehicle>
    <vehicle id="143" depart="295.94">
        <route edges="E6 E7 E8 9 10"/>
    </vehicle>
    <vehicle id="144" depart="298.01">
        <route edges="8 9 10 11 0 1 2 3 4"/>
    </vehicle>
    <vehicle id="145" depart="300.08">
        <route edges="0 1 2 3 4 5 6 7 8 9 10 11 E0 E1 E2 E3"/>
    </vehicle>
    <vehicle id="146" depart="302.15">
        <route edges="E13 E5 E6 E7 E8 9 10 11 0 1 2 3 4"/>
    </vehicle>
    <vehicle id="147" depart="304.22">
        <route edges="E3 E4 E5 E6 E7 E8 9 10 11 E0 E1"/>
    </vehicle>
    <vehicle id="148" depart="306.29">
        <route edges="8 9 10 11 0"/>
    </vehicle>
    <vehicle id="149" depart="308.36">
        <route edges="1 2 3 4 5 6 7 8 9 10 11 E0 E1 E2 E3 E4 E5 E6"/>
    </vehicle>
    <vehicle id="150" depart="310.43">
        <route edges="E7 E8 9 10 11 E0 E1"/>
    </vehicle>
    <vehicle id="151" depart="312.50">
        <route edges="E6 E7 E8 9 10 11 E0 E1"/>
    </vehicle>
    <vehicle id="152" depart="314.57">
        <route edges="11"/>
    </vehicle>
    <vehicle id="153" depart="316.64">
        <route edges="5 6 7 8 9 10 11 E0 E1 E2 E3 E4 E5 E6"/>
    </vehicle>
    <vehicle id="154" depart="318.71">
        <route edges="E5"/>
    </vehicle>
    <vehicle id="155" depart="320.78">
        <route edges="E7 E8 9 10 11 0 1 2 3"/>
    </vehicle>
    <vehicle id="156" depart="322.85">
        <route edges="3 4 5 6 7 8 9 10"/>
    </vehicle>
    <vehicle id="157" depart="324.92">
        <route edges="E4 E5 E6"/>
    </vehicle>
    <vehicle id="158" depart="326.99">
        <route edges="7 8 9 10 11 0 1 2 3 E10"/>
    </vehicle>
    <vehicle id="159" depart="329.06">
        <route edges="11 E0 E1 E2 E3 E4 E5 E6 E7"/>
    </vehicle>
    <vehicle id="160" depart="331.13">
        <route edges="E6 E7 E8"/>
    </vehicle>
    <vehicle id="161" depart="333.20">
        <route edges="E5 E6"/>
    </vehicle>
    <vehicle id="162" depart="335.27">
        <route edges="0 1 2 3 4 5 6 7 8 9 10 11 E0 E1 E2"/>
    </vehicle>
    <vehicle id="163" depart="337.34">
        <route edges="5 6 7 8 9 10 11 E0 E1 E2 E3 E4 E5 E6 E7"/>
    </vehicle>
    <vehicle id="164" depart="339.40">
        <route edges="E5"/>
    </vehicle>
    <vehicle id="165" depart="341.47">
        <route edges="E5 E6 E7 E8 9 10 11 0 1 2 3 4"/>
    </vehicle>
    <vehicle id="166" depart="343.54">
        <route edges="E4 E5 E6 E7 E8 9 10"/>
    </vehicle>
    <vehicle id="167" depart="345.61">
        <route edges="E6 E7 E8 9 10 11 E0 E1 E2 E3 E4 E5"/>
    </vehicle>
    <vehicle id="168" depart="347.68">
        <route edges="3 4 5 6 7 8 9 10 11 E0 E1 E2 E3 E4"/>
    </vehicle>
    <vehicle id="169" depart="349.75">
        <route edges="9 10 11 0 1 2 3 4 5"/>
    </vehicle>
    <vehicle id="170" depart="351.82">
        <route edges="E5 E6 E7 E8 9 10 11 0 1 2 3"/>
    </vehicle>
    <vehicle id="171" depart="353.89">
        <route edges="0 1 2"/>
    </vehicle>
    <vehicle id="172" depart="355.96">
        <route edges="5 6 7 8 9 10 11 E0 E1 E2 E3 E4 E5"/>
    </vehicle>
    <vehicle id="173" depart="358.03">
        <route edges="E9 5 6 7 8 9 10 11 0 1 2 3 4"/>
    </vehicle>
    <vehicle id="174" depart="360.10">
        <route edges="E13 E5 E6 E7 E8 9 10 11 0 1 2 3 4 5 6 7"/>
    </vehicle>
    <vehicle id="175" depart="362.17">
        <route edges="E9 5 6 7 8 9 10 11 E0"/>
    </vehicle>
    <vehicle id="176" depart="364.24">
        <route edges="E8 9 10"/>
    </vehicle>
    <vehicle id="177" depart="366.31">
        <route edges="E9 5 6 7 8 9 10 11 0 1 2"/>
    </vehicle>
    <vehicle id="178" depart="368.38">
        <route edges="E9 5 6 7 8 9 10 11 0 1 2 3 4"/>
    </vehicle>
    <vehicle id="179" depart="370.45">
        <route edges="10 11 0 1 2 3 4 5 6 7 8"/>
    </vehicle>
    <vehicle id="180" depart="372.52">
        <route edges="E3 E4 E5 E6 E7 E8 9 10 11 0 1 2 3 4 5"/>
    </vehicle>
    <vehicle id="181" depart="374.59">
        <route edges="E12 11 E0"/>
    </vehicle>
    <vehicle id="182" depart="376.66">
        <route edges="7 8 9 10 11 E0 E1"/>
    </vehicle>
    <vehicle id="183" depart="378.73">
        <route edges="4 5 6 7 8 9 10 11 E0 E1 E2"/>
    </vehicle>
    <vehicle id="184" depart="380.80">
        <route edges="0 1 2 3 4 5 6 7 8 9 10 11 E0 E1 E2 E3 E4 E5 E6 E7"/>
    </vehicle>
    <vehicle id="185" depart="382.87">
        <route edges="E0 E1 E2"/>
    </vehicle>
    <vehicle id="186" depart="384.93">
        <route edges="E3 E14"/>
    </vehicle>
    <vehicle id="187" depart="387.00">
        <route edges="6 7 8 9 10 11 0 1"/>
    </vehicle>
    <vehicle id="188" depart="389.07">
        <route edges="E13 E5 E6 E7 E8 9 10 11 0 1 2 3 4 5"/>
    </vehicle>
    <vehicle id="189" depart="391.14">
        <route edges="5 6 7 8 9 10 11 E0 E1 E2 E3 E4 E5"/>
    </vehicle>
    <vehicle id="190" depart="393.21">
        <route edges="E3 E4 E5 E6 E7 E8 9 10 11 0 1 2 3 4 5"/>
    </vehicle>
    <vehicle id="191" depart="395.28">
        <route edges="5 6 7"/>
    </vehicle>
    <vehicle id="192" depart="397.35">
        <route edges="7 8 9 10 11 0 1 2 3 4 5"/>
    </vehicle>
    <vehicle id="193" depart="399.42">
        <route edges="11 0 1 2 3 4 5 6 7 8"/>
    </vehicle>
    <vehicle id="194" depart="401.49">
        <route edges="E8 9 10 11 E0 E1 E2 E3 E14"/>
    </vehicle>
    <vehicle id="195" depart="403.56">
        <route edges="E7 E8 9 10 11 0 1 2 3 E10"/>
    </vehicle>
    <vehicle id="196" depart="405.63">
        <route edges="5 6 7 8 9 10 11 E0 E1"/>
    </vehicle>
    <vehicle id="197" depart="407.70">
        <route edges="0 1 2 3 4"/>
    </vehicle>
    <vehicle id="198" depart="409.77">
        <route edges="8 9 10 11 E0 E1"/>
    </vehicle>
    <vehicle id="199" depart="411.84">
        <route edges="E13 E5 E6 E7 E8 9"/>
    </vehicle>
    <vehicle id="200" depart="413.91">
        <route edges="8 9 10 11 0 1 2 3"/>
    </vehicle>
    <vehicle id="201" depart="415.98">
        <route edges="9 10 11 E0 E1 E2 E3 E4 E5 E6"/>
    </vehicle>
    <vehicle id="202" depart="418.05">
        <route edges="E5 E6 E7 E8 9 10 11 0 1 2"/>
    </vehicle>
    <vehicle id="203" depart="420.12">
        <route edges="10 11 E0"/>
    </vehicle>
    <vehicle id="204" depart="422.19">
        <route edges="E13 E5 E6 E7 E8 9 10 11 0 1 2 3 4 5 6"/>
    </vehicle>
    <vehicle id="205" depart="424.26">
        <route edges="E5 E6 E7 E8 9 10 11 E0 E1 E2 E3"/>
    </vehicle>
    <vehicle id="206" depart="426.33">
        <route edges="E2 E3 E4 E5 E6 E7 E8 9 10 11 0 1 2 3"/>
    </vehicle>
    <vehicle id="207" depart="428.39">
        <route edges="2 3 4 5 6 7 8 9 10 11 0"/>
    </vehicle>
    <vehicle id="208" depart="430.46">
        <route edges="3 4 5 6 7 8 9"/>
    </vehicle>
    <vehicle id="209" depart="432.53">
        <route edges="E6 E7 E8 9 10 11 0 1"/>
    </vehicle>
    <vehicle id="210" depart="434.60">
        <route edges="7 8 9 E11"/>
    </vehicle>
    <vehicle id="211" depart="436.67">
        <route edges="2 3 4 5 6 7 8 9 10 11 E0 E1 E2 E3 E14"/>
    </vehicle>
    <vehicle id="212" depart="438.74">
        <route edges="9 10 11 0 1 2 3"/>
    </vehicle>
    <vehicle id="213" depart="440.81">
        <route edges="E13 E5 E6 E7 E8 9 10 11 0"/>
    </vehicle>
    <vehicle id="214" depart="442.88">
        <route edges="E4 E5 E6 E7 E8 9 10 11 E0 E1 E2 E3"/>
    </vehicle>
    <vehicle id="215" depart="444.95">
        <route edges="10 11 0 1 2 3 4 5 6 7 8"/>
    </vehicle>
    <vehicle id="216" depart="447.02">
        <route edges="2 3 4 5 6 7 8 9 10 11 E0 E1 E2 E3 E4 E5 E6 E7"/>
    </vehicle>
    <vehicle id="217" depart="449.09">
        <route edges="E0 E1 E2 E3 E4 E5 E6 E7 E8 9 10 11 0 1"/>
    </vehicle>
    <vehicle id="218" depart="451.16">
        <route edges="3 4 5 6 7 8 9 10 11 E0 E1 E2 E3 E4 E5"/>
    </vehicle>
    <vehicle id="219" depart="453.23">
        <route edges="8 9 10 11 E0 E1 E2 E3 E4"/>
    </vehicle>
    <vehicle id="220" depart="455.30">
        <route edges="E2 E3 E4 E5 E6 E7 E8"/>
    </vehicle>
    <vehicle id="221" depart="457.37">
        <route edges="E12 11 E0 E1 E2 E3 E4 E5 E6 E7"/>
    </vehicle>
    <vehicle id="222" depart="459.44">
        <route edges="E7 E8 9 10 11 0 1 2 3 E10"/>
    </vehicle>
    <vehicle id="223" depart="461.51">
        <route edges="E3 E4 E5 E6 E7 E8 9 10 11 E0"/>
    </vehicle>
    <vehicle id="224" depart="463.58">
        <route edges="E5 E6 E7 E8 9 10 11 E0 E1"/>
    </vehicle>
    <vehicle id="225" depart="465.65">
        <route edges="E7 E8 9 10 11 E0 E1 E2"/>
    </vehicle>
    <vehicle id="226" depart="467.72">
        <route edges="9 10 11 0 1 2 3 4"/>
    </vehicle>
    <vehicle id="227" depart="469.79">
        <route edges="3 4 5 6 7 8 9 E11"/>
    </vehicle>
    <vehicle id="228" depart="471.86">
        <route edges="E4 E5 E6 E7 E8 9 10 11 E0"/>
    </vehicle>
    <vehicle id="229" depart="473.92">
        <route edges="E13 E5 E6 E7 E8 9 10 11 0 1 2 3 4"/>
    </vehicle>
    <vehicle id="230" depart="475.99">
        <route edges="1 2 3 4"/>
    </vehicle>
    <vehicle id="231" depart="478.06">
        <route edges="4 5"/>
    </vehicle>
    <vehicle id="232" depart="480.13">
        <route edges="E0 E1 E2 E3 E4 E5 E6 E7 E8 9 10 11"/>
    </vehicle>
    <vehicle id="233" depart="482.20">
        <route edges="3 4 5 6 7 8 9 10 11 E0 E1 E2 E3 E14"/>
    </vehicle>
    <vehicle id="234" depart="484.27">
        <route edges="E2 E3 E4 E5 E6 E7 E8 9 10 11 0 1"/>
    </vehicle>
    <vehicle id="235" depart="486.34">
        <route edges="7 8 9 10 11 E0 E1"/>
    </vehicle>
    <vehicle id="236" depart="488.41">
        <route edges="7 8 9 10 11 0 1 2"/>
    </vehicle>
    <vehicle id="237" depart="490.48">
        <route edges="8 9 10 11 E0 E1 E2 E3 E4 E5 E6"/>
    </vehicle>
    <vehicle id="238" depart="492.55">
        <route edges="E12 11 E0 E1 E2 E3 E14"/>
    </vehicle>
    <vehicle id="239" depart="494.62">
        <route edges="E6 E7 E8 9 10 11 E0 E1 E2 E3"/>
    </vehicle>
    <vehicle id="240" depart="496.69">
        <route edges="7 8 9 10 11 0"/>
    </vehicle>
    <vehicle id="241" depart="498.76">
        <route edges="6 7 8 9 10 11 E0 E1 E2 E3"/>
    </vehicle>
    <vehicle id="242" depart="500.83">
        <route edges="E6 E7"/>
    </vehicle>
    <vehicle id="243" depart="502.90">
        <route edges="8 9 10 11 E0 E1 E2"/>
    </vehicle>
    <vehicle id="244" depart="504.97">
        <route edges="E1 E2 E3 E4 E5 E6 E7 E8 9 10 11 0 1 2 3 E10"/>
    </vehicle>
    <vehicle id="245" depart="507.04">
        <route edges="3"/>
    </vehicle>
    <vehicle id="246" depart="509.11">
        <route edges="8 9 10 11 0"/>
    </vehicle>
    <vehicle id="247" depart="511.18">
        <route edges="6 7 8 9 10 11 E0 E1 E2 E3 E14"/>
    </vehicle>
    <vehicle id="248" depart="513.25">
        <route edges="7 8 9 10 11"/>
    </vehicle>
    <vehicle id="249" depart="515.32">
        <route edges="9 10 11"/>
    </vehicle>
    <vehicle id="250" depart="517.39">
        <route edges="E12 11 0"/>
    </vehicle>
    <vehicle id="251" depart="519.45">
        <route edges="7 8 9 10 11 E0 E1"/>
    </vehicle>
    <vehicle id="252" depart="521.52">
        <route edges="0 1 2 3 4 5 6 7 8 9 E11"/>
    </vehicle>
    <vehicle id="253" depart="523.59">
        <route edges="11 0 1 2 3 4 5 6 7 8 9"/>
    </vehicle>
    <vehicle id="254" depart="525.66">
        <route edges="1 2 3 4 5 6 7"/>
    </vehicle>
    <vehicle id="255" depart="527.73">
        <route edges="3 4 5"/>
    </vehicle>
    <vehicle id="256" depart="529.80">
        <route edges="E4 E5 E6 E7 E8 9 10 11 0 1 2 3 4 5 6 7"/>
    </vehicle>
    <vehicle id="257" depart="531.87">
        <route edges="E4"/>
    </vehicle>
    <vehicle id="258" depart="533.94">
        <route edges="4 5 6 7 8 9 10 11 0 1"/>
    </vehicle>
    <vehicle id="259" depart="536.01">
        <route edges="0 1 2 3 4 5 6 7 8 9 10 11 E0"/>
    </vehicle>
    <vehicle id="260" depart="538.08">
        <route edges="E9 5 6"/>
    </vehicle>
    <vehicle id="261" depart="540.15">
        <route edges="E13 E5 E6 E7 E8 9 10 11 E0 E1 E2 E3"/>
    </vehicle>
    <vehicle id="262" depart="542.22">
        <route edges="E13 E5 E6 E7 E8 9 10 11 E0 E1 E2 E3"/>
    </vehicle>
    <vehicle id="263" depart="544.29">
        <route edges="E8 9 10 11 0 1 2"/>
    </vehicle>
    <vehicle id="264" depart="546.36">
        <route edges="0 1 2 3 4 5 6 7 8 9 10 11"/>
    </vehicle>
    <vehicle id="265" depart="548.43">
        <route edges="11 E0 E1 E2 E3 E14"/>
    </vehicle>
    <vehicle id="266" depart="550.50">
        <route edges="E1 E2 E3 E4 E5 E6 E7 E8 9 10 11 0 1 2 3"/>
    </vehicle>
    <vehicle id="267" depart="552.57">
        <route edges="E2 E3"/>
    </vehicle>
    <vehicle id="268" depart="554.64">
        <route edges="2 3 E10"/>
    </vehicle>
    <vehicle id="269" depart="556.71">
        <route edges="E3 E4 E5 E6 E7 E8 9 10"/>
    </vehicle>
    <vehicle id="270" depart="558.78">
        <route edges="E5 E6 E7 E8"/>
    </vehicle>
    <vehicle id="271" depart="560.85">
        <route edges="10 11 0"/>
    </vehicle>
    <vehicle id="272" depart="562.92">
        <route edges="5 6 7 8 9 10 11 E0 E1 E2 E3 E14"/>
    </vehicle>
    <vehicle id="273" depart="564.98">
        <route edges="E8 9 10 11 0 1 2 3 4 5 6 7"/>
    </vehicle>
    <vehicle id="274" depart="567.05">
        <route edges="E3 E4 E5 E6 E7 E8 9 10 11 0 1"/>
    </vehicle>
    <vehicle id="275" depart="569.12">
        <route edges="E2 E3 E4 E5 E6 E7 E8 9 E11"/>
    </vehicle>
    <vehicle id="276" depart="571.19">
        <route edges="10 11 E0 E1 E2 E3"/>
    </vehicle>
    <vehicle id="277" depart="573.26">
        <route edges="E6 E7 E8 9 10 11 0 1 2 3 E10"/>
    </vehicle>
    <vehicle id="278" depart="575.33">
        <route edges="10 11 E0 E1 E2 E3 E4 E5 E6 E7 E8"/>
    </vehicle>
    <vehicle id="279" depart="577.40">
        <route edges="E4 E5 E6 E7 E8 9 10 11 0 1 2 3 4 5 6"/>
    </vehicle>
    <vehicle id="280" depart="579.47">
        <route edges="8 9 10 11 0 1 2 3 4 5 6"/>
    </vehicle>
    <vehicle id="281" depart="581.54">
        <route edges="E0 E1 E2 E3 E4 E5 E6 E7 E8 9 10 11 0 1 2 3 4 5 6"/>
    </vehicle>
    <vehicle id="282" depart="583.61">
        <route edges="E6 E7 E8 9 10 11 E0 E1 E2 E3 E4"/>
    </vehicle>