<?xml version="1.0" encoding="UTF-8"?>

<!-- generated on 2024-06-21 23:06:30.966401 by randomtrips.py v1_14_1+0000-f654d7b963e
<configuration>
    <end value="3000"/>
    <insertion-density value="29.0"/>
    <net-file value="wang2020/sumo/ring.net.xml"/>
    <route-file value="wang2020/sumo/traffic29.rou.xml"/>
</configuration>
-->

<!-- generated on 2024-06-21 23:06:30 by Eclipse SUMO duarouter Version 1.14.1
<configuration xmlns:xsi="http://www.w3.org/2001/XMLSchema-instance" xsi:noNamespaceSchemaLocation="http://sumo.dlr.de/xsd/duarouterConfiguration.xsd">

    <input>
        <net-file value="wang2020/sumo/ring.net.xml"/>
        <route-files value="trips.trips.xml"/>
    </input>

    <output>
        <output-file value="wang2020/sumo/traffic29.rou.xml"/>
        <alternatives-output value="NUL"/>
    </output>

    <time>
        <begin value="0"/>
        <end value="3000"/>
    </time>

    <report>
        <no-warnings value="true"/>
        <ignore-errors value="true"/>
        <no-step-log value="true"/>
    </report>

</configuration>
-->

<routes xmlns:xsi="http://www.w3.org/2001/XMLSchema-instance" xsi:noNamespaceSchemaLocation="http://sumo.dlr.de/xsd/routes_file.xsd">
    <vehicle id="0" depart="0.00">
        <route edges="E13 E5 E6 E7 E8 9 10 11 0"/>
    </vehicle>
    <vehicle id="1" depart="6.42">
        <route edges="4 5 6 7 8 9 10 11 0 1 2 3"/>
    </vehicle>
    <vehicle id="2" depart="12.85">
        <route edges="E3 E14"/>
    </vehicle>
    <vehicle id="3" depart="19.27">
        <route edges="E7 E8 9 10"/>
    </vehicle>
    <vehicle id="4" depart="25.69">
        <route edges="8 9 10 11 0"/>
    </vehicle>
    <vehicle id="5" depart="32.11">
        <route edges="3 4 5 6 7 8 9 10 11 E0"/>
    </vehicle>
    <vehicle id="6" depart="38.54">
        <route edges="0 1 2"/>
    </vehicle>
    <vehicle id="7" depart="44.96">
        <route edges="E13 E5 E6 E7 E8 9 10 11 E0 E1"/>
    </vehicle>
    <vehicle id="8" depart="51.38">
        <route edges="3 E10"/>
    </vehicle>
    <vehicle id="9" depart="57.80">
        <route edges="E5 E6 E7 E8 9 10 11 0"/>
    </vehicle>
    <vehicle id="10" depart="64.23">
        <route edges="E5 E6 E7 E8 9 10 11 E0 E1 E2 E3 E14"/>
    </vehicle>
    <vehicle id="11" depart="70.65">
        <route edges="6 7 8 9 10 11"/>
    </vehicle>
    <vehicle id="12" depart="77.07">
        <route edges="E8 9 10 11 0 1 2 3 4 5 6"/>
    </vehicle>
    <vehicle id="13" depart="83.50">
        <route edges="10"/>
    </vehicle>
    <vehicle id="14" depart="89.92">
        <route edges="E6 E7 E8 9 10 11 0 1 2 3 E10"/>
    </vehicle>
    <vehicle id="15" depart="96.34">
        <route edges="E5 E6 E7 E8 9 10 11 E0 E1 E2"/>
    </vehicle>
    <vehicle id="16" depart="102.76">
        <route edges="E0 E1 E2 E3 E4 E5 E6 E7 E8"/>
    </vehicle>
    <vehicle id="17" depart="109.19">
        <route edges="7 8 9 10 11 E0 E1"/>
    </vehicle>
    <vehicle id="18" depart="115.61">
        <route edges="E5 E6 E7 E8 9 10 11 0 1 2 3 E10"/>
    </vehicle>
    <vehicle id="19" depart="122.03">
        <route edges="E6 E7 E8 9 10 11 E0 E1"/>
    </vehicle>
    <vehicle id="20" depart="128.45">
        <route edges="E2 E3 E4 E5 E6 E7 E8 9 10 11 0 1"/>
    </vehicle>
    <vehicle id="21" depart="134.88">
        <route edges="3 4"/>
    </vehicle>
    <vehicle id="22" depart="141.30">
        <route edges="1 2 3"/>
    </vehicle>
    <vehicle id="23" depart="147.72">
        <route edges="10 11 0 1 2 3 4"/>
    </vehicle>
    <vehicle id="24" depart="154.15">
        <route edges="E13 E5 E6 E7 E8 9 10 11 0 1 2 3 4 5 6"/>
    </vehicle>
    <vehicle id="25" depart="160.57">
        <route edges="6 7 8 9 10 11 0 1 2 3"/>
    </vehicle>
    <vehicle id="26" depart="166.99">
        <route edges="4 5 6 7 8 9 10 11 E0 E1 E2 E3 E4 E5 E6 E7"/>
    </vehicle>
    <vehicle id="27" depart="173.41">
        <route edges="E13 E5 E6 E7 E8 9 10 11 0 1 2 3 E10"/>
    </vehicle>
    <vehicle id="28" depart="179.84">
        <route edges="2 3 4 5 6 7 8 9 10 11 E0 E1 E2"/>
    </vehicle>
    <vehicle id="29" depart="186.26">
        <route edges="11 0 1 2 3 4 5 6 7"/>
    </vehicle>
    <vehicle id="30" depart="192.68">
        <route edges="E9 5 6 7 8 9 E11"/>
    </vehicle>
    <vehicle id="31" depart="199.10">
        <route edges="E1 E2 E3 E14"/>
    </vehicle>
    <vehicle id="32" depart="205.53">
        <route edges="E6 E7 E8 9 10 11 E0 E1 E2 E3"/>
    </vehicle>
    <vehicle id="33" depart="211.95">
        <route edges="3 4 5 6 7 8 9 10 11 0"/>
    </vehicle>
    <vehicle id="34" depart="218.37">
        <route edges="5 6 7 8 9 10 11 0 1 2 3 4"/>
    </vehicle>
    <vehicle id="35" depart="224.79">
        <route edges="3 4 5 6 7 8 9 10 11 E0 E1 E2 E3 E4 E5 E6 E7"/>
    </vehicle>
    <vehicle id="36" depart="231.22">
        <route edges="E7 E8 9 10 11 0 1 2 3 4 5"/>
    </vehicle>
    <vehicle id="37" depart="237.64">
        <route edges="E13 E5 E6 E7 E8 9 10 11 0 1 2 3 4 5 6 7"/>
    </vehicle>
    <vehicle id="38" depart="244.06">
        <route edges="E7 E8 9"/>
    </vehicle>
    <vehicle id="39" depart="250.49">
        <route edges="4 5 6 7 8 9 10 11 0 1 2 3"/>
    </vehicle>
    <vehicle id="40" depart="256.91">
        <route edges="E1 E2 E3 E4 E5 E6 E7 E8 9 10 11 0 1 2 3 4"/>
    </vehicle>
    <vehicle id="41" depart="263.33">
        <route edges="E12 11 E0 E1 E2 E3 E4 E5 E6"/>
    </vehicle>
    <vehicle id="42" depart="269.75">
        <route edges="7 8 9 10 11 0 1 2 3"/>
    </vehicle>
    <vehicle id="43" depart="276.18">
        <route edges="E9 5 6 7 8 9 10 11 E0"/>
    </vehicle>
    <vehicle id="44" depart="282.60">
        <route edges="10 11 0 1"/>
    </vehicle>
    <vehicle id="45" depart="289.02">
        <route edges="10 11 0 1 2 3 4 5 6 7 8 9 E11"/>
    </vehicle>
    <vehicle id="46" depart="295.44">
        <route edges="E5 E6 E7 E8 9 10 11 0 1 2 3 4 5 6 7 8"/>
    </vehicle>
    <vehicle id="47" depart="301.87">
        <route edges="1 2 3 4 5 6 7"/>
    </vehicle>
    <vehicle id="48" depart="308.29">
        <route edges="E9 5 6 7 8 9 10 11 E0"/>
    </vehicle>
    <vehicle id="49" depart="314.71">
        <route edges="E9 5 6 7 8 9 10 11 E0 E1 E2 E3 E4 E5"/>
    </vehicle>
    <vehicle id="50" depart="321.14">
        <route edges="0 1 2 3 4 5 6 7 8 9 10 11 E0 E1 E2"/>
    </vehicle>
    <vehicle id="51" depart="327.56">
        <route edges="E2 E3 E4 E5 E6 E7 E8 9 10 11 E0"/>
    </vehicle>
    <vehicle id="52" depart="333.98">
        <route edges="4 5 6 7 8 9 E11"/>
    </vehicle>
    <vehicle id="53" depart="340.40">
        <route edges="10 11 0 1 2 3 4 5 6 7 8"/>
    </vehicle>
    <vehicle id="54" depart="346.83">
        <route edges="8 9 10 11 E0 E1 E2 E3 E4 E5 E6 E7"/>
    </vehicle>
    <vehicle id="55" depart="353.25">
        <route edges="E7 E8 9 10 11 0 1 2 3 4"/>
    </vehicle>
    <vehicle id="56" depart="359.67">
        <route edges="E0 E1 E2 E3 E4 E5 E6 E7 E8 9 10 11 0 1 2"/>
    </vehicle>
    <vehicle id="57" depart="366.09">
        <route edges="E7 E8 9 10 11 E0 E1 E2 E3 E4 E5"/>
    </vehicle>
    <vehicle id="58" depart="372.52">
        <route edges="5 6 7 8 9 E11"/>
    </vehicle>
    <vehicle id="59" depart="378.94">
        <route edges="E12 11"/>
    </vehicle>
    <vehicle id="60" depart="385.36">
        <route edges="E4 E5 E6 E7 E8 9 10 11 E0"/>
    </vehicle>
    <vehicle id="61" depart="391.79">
        <route edges="E4 E5 E6 E7 E8 9 10 11 E0"/>
    </vehicle>
    <vehicle id="62" depart="398.21">
        <route edges="0 1 2 3 4 5"/>
    </vehicle>
    <vehicle id="63" depart="404.63">
        <route edges="0 1 2 3 4 5 6 7 8 9 10 11 E0 E1 E2 E3 E4 E5 E6 E7"/>
    </vehicle>
    <vehicle id="64" depart="411.05">
        <route edges="E7 E8 9 10 11 E0 E1 E2 E3 E4"/>
    </vehicle>
    <vehicle id="65" depart="417.48">
        <route edges="5 6 7 8 9 10 11 0 1"/>
    </vehicle>
    <vehicle id="66" depart="423.90">
        <route edges="E7"/>
    </vehicle>
    <vehicle id="67" depart="430.32">
        <route edges="10 11 0 1 2 3 4 5 6 7 8 9"/>
    </vehicle>
    <vehicle id="68" depart="436.74">
        <route edges="1 2 3 4 5 6 7 8 9 10 11 E0 E1 E2 E3"/>
    </vehicle>
    <vehicle id="69" depart="443.17">
        <route edges="E4 E5 E6 E7 E8 9 10 11"/>
    </vehicle>
    <vehicle id="70" depart="449.59">
        <route edges="9 10 11 E0 E1"/>
    </vehicle>
    <vehicle id="71" depart="456.01">
        <route edges="4 5 6 7 8 9 10 11 E0 E1 E2 E3 E4 E5"/>
    </vehicle>
    <vehicle id="72" depart="462.44">
        <route edges="8 9 10 11 0 1 2 3"/>
    </vehicle>
    <vehicle id="73" depart="468.86">
        <route edges="E0 E1 E2"/>
    </vehicle>
    <vehicle id="74" depart="475.28">
        <route edges="2 3 4 5"/>
    </vehicle>
    <vehicle id="75" depart="481.70">
        <route edges="E9 5 6 7 8 9 E11"/>
    </vehicle>
    <vehicle id="76" depart="488.13">
        <route edges="8 9 10 11 E0"/>
    </vehicle>
    <vehicle id="77" depart="494.55">
        <route edges="10 11 0 1 2 3"/>
    </vehicle>
    <vehicle id="78" depart="500.97">
        <route edges="6 7 8 9 10 11 0 1 2 3 E10"/>
    </vehicle>
    <vehicle id="79" depart="507.39">
        <route edges="3"/>
    </vehicle>
    <vehicle id="80" depart="513.82">
        <route edges="1 2 3 4 5 6 7 8 9 E11"/>
    </vehicle>
    <vehicle id="81" depart="520.24">
        <route edges="3 4 5 6 7 8 9 10 11 E0 E1 E2 E3 E4 E5 E6"/>
    </vehicle>
    <vehicle id="82" depart="526.66">
        <route edges="E6 E7 E8 9 10 11 0 1"/>
    </vehicle>
    <vehicle id="83" depart="533.09">
        <route edges="3 4 5 6 7 8 9 10 11 E0 E1 E2 E3 E14"/>
    </vehicle>
    <vehicle id="84" depart="539.51">
        <route edges="3 4 5 6 7 8 9 10 11"/>
    </vehicle>
    <vehicle id="85" depart="545.93">
        <route edges="E8 9 10 11 E0 E1"/>
    </vehicle>
    <vehicle id="86" depart="552.35">
        <route edges="9 10 11 E0 E1 E2 E3"/>
    </vehicle>
    <vehicle id="87" depart="558.78">
        <route edges="E5 E6 E7 E8 9 10 11 0 1 2"/>
    </vehicle>
    <vehicle id="88" depart="565.20">
        <route edges="10 11 0 1 2 3 4 5 6 7 8"/>
    </vehicle>
    <vehicle id="89" depart="571.62">
        <route edges="8 9"/>
    </vehicle>
    <vehicle id="90" depart="578.04">
        <route edges="E3 E14"/>
    </vehicle>
    <vehicle id="91" depart="584.47">
        <route edges="E9 5 6 7 8 9 10"/>
    </vehicle>
    <vehicle id="92" depart="590.89">
        <route edges="7 8 9 10 11 0 1 2 3 4 5 6"/>
    </vehicle>
    <vehicle id="93" depart="597.31">
        <route edges="E6 E7 E8 9 10 11 0 1 2 3"/>
    </vehicle>
    <vehicle id="94" depart="603.73">
        <route edges="2 3 4 5 6 7 8"/>
    </vehicle>
    <vehicle id="95" depart="610.16">
        <route edges="8 9 10 11 0 1 2 3 4"/>
    </vehicle>
    <vehicle id="96" depart="616.58">
        <route edges="3 4 5 6 7 8 9 10 11 E0 E1 E2 E3 E4 E5 E6 E7"/>
    </vehicle>
    <vehicle id="97" depart="623.00">
        <route edges="8 9 10 11 E0 E1 E2 E3 E4 E5"/>
    </vehicle>
    <vehicle id="98" depart="629.43">
        <route edges="E1 E2 E3 E4 E5 E6 E7 E8 9 10 11 0 1"/>
    </vehicle>
    <vehicle id="99" depart="635.85">
        <route edges="E9 5 6 7 8 9 10 11 E0 E1 E2 E3 E4 E5"/>
    </vehicle>
    <vehicle id="100" depart="642.27">
        <route edges="E9 5 6 7 8 9 10 11 E0 E1 E2 E3 E4 E5 E6 E7"/>
    </vehicle>
    <vehicle id="101" depart="648.69">
        <route edges="E6 E7 E8 9 10 11"/>
    </vehicle>
    <vehicle id="102" depart="655.12">
        <route edges="9 10 11 0 1 2 3"/>
    </vehicle>
    <vehicle id="103" depart="661.54">
        <route edges="7 8 9 10 11 0 1"/>
    </vehicle>
    <vehicle id="104" depart="667.96">
        <route edges="7 8 9 10 11 E0 E1 E2 E3 E4 E5 E6 E7 E8"/>
    </vehicle>
    <vehicle id="105" depart="674.38">
        <route edges="4 5 6 7 8 9 10 11 E0 E1 E2 E3"/>
    </vehicle>
    <vehicle id="106" depart="680.81">
        <route edges="8"/>
    </vehicle>
    <vehicle id="107" depart="687.23">
        <route edges="E8"/>
    </vehicle>
    <vehicle id="108" depart="693.65">
        <route edges="E1 E2"/>
    </vehicle>
    <vehicle id="109" depart="700.08">
        <route edges="11 0 1 2 3 4 5"/>
    </vehicle>
    <vehicle id="110" depart="706.50">
        <route edges="E9 5 6 7 8 9 10 11 E0 E1"/>
    </vehicle>
    <vehicle id="111" depart="712.92">
        <route edges="E1 E2"/>
    </vehicle>
    <vehicle id="112" depart="719.34">
        <route edges="1 2 3 E10"/>
    </vehicle>
    <vehicle id="113" depart="725.77">
        <route edges="E0 E1 E2 E3 E4 E5"/>
    </vehicle>
    <vehicle id="114" depart="732.19">
        <route edges="11 E0 E1 E2 E3 E4 E5 E6 E7 E8"/>
    </vehicle>
    <vehicle id="115" depart="738.61">
        <route edges="1 2"/>
    </vehicle>
    <vehicle id="116" depart="745.03">
        <route edges="E12 11 E0 E1 E2 E3 E14"/>
    </vehicle>
    <vehicle id="117" depart="751.46">
        <route edges="3 4 5 6 7 8 9 10"/>
    </vehicle>
    <vehicle id="118" depart="757.88">
        <route edges="E7 E8 9 10 11 0 1 2 3"/>
    </vehicle>
    <vehicle id="119" depart="764.30">
        <route edges="E12 11 0 1 2 3 E10"/>
    </vehicle>
    <vehicle id="120" depart="770.73">
        <route edges="8 9 10 11 0 1 2 3 E10"/>
    </vehicle>
    <vehicle id="121" depart="777.15">
        <route edges="E0 E1 E2 E3 E4 E5 E6 E7"/>
    </vehicle>
    <vehicle id="122" depart="783.57">
        <route edges="2 3 4 5 6 7 8 9 10 11 E0 E1 E2"/>
    </vehicle>
    <vehicle id="123" depart="789.99">
        <route edges="3 4 5 6 7"/>
    </vehicle>
    <vehicle id="124" depart="796.42">
        <route edges="E2 E3 E4 E5 E6 E7 E8 9 10 11 0 1 2 3 4 5"/>
    </vehicle>
    <vehicle id="125" depart="802.84">
        <route edges="5 6 7 8 9 10 11 E0 E1 E2 E3"/>
    </vehicle>
    <vehicle id="126" depart="809.26">
        <route edges="1 2 3 4 5 6 7 8"/>
    </vehicle>
    <vehicle id="127" depart="815.68">
        <route edges="E9 5 6 7 8 9 10 11 E0 E1 E2 E3 E4 E5 E6 E7 E8"/>
    </vehicle>
    <vehicle id="128" depart="822.11">
        <route edges="1 2 3"/>
    </vehicle>
    <vehicle id="129" depart="828.53">
        <route edges="4 5 6 7 8 9 10 11 E0 E1 E2 E3 E4 E5 E6 E7"/>
    </vehicle>
    <vehicle id="130" depart="834.95">
        <route edges="E7 E8 9 10 11 E0 E1 E2 E3 E4 E5 E6"/>
    </vehicle>
    <vehicle id="131" depart="841.38">
        <route edges="6 7 8 9 10 11"/>
    </vehicle>
    <vehicle id="132" depart="847.80">
        <route edges="E6 E7 E8 9 10 11 E0 E1 E2 E3 E14"/>
    </vehicle>
    <vehicle id="133" depart="854.22">
        <route edges="E12 11 E0 E1 E2 E3 E4 E5 E6 E7 E8"/>
    </vehicle>
    <vehicle id="134" depart="860.64">
        <route edges="E13 E5 E6 E7 E8 9 10 11 0"/>
    </vehicle>
    <vehicle id="135" depart="867.07">
        <route edges="E5 E6 E7 E8 9 10 11 0 1 2 3 4 5"/>
    </vehicle>
    <vehicle id="136" depart="873.49">
        <route edges="E13 E5 E6 E7"/>
    </vehicle>
    <vehicle id="137" depart="879.91">
        <route edges="11 0 1 2 3 4 5 6 7 8 9 10"/>
    </vehicle>
    <vehicle id="138" depart="886.33">
        <route edges="10 11 E0 E1"/>
    </vehicle>
    <vehicle id="139" depart="892.76">
        <route edges="4 5 6 7 8 9 10 11 0 1 2 3 E10"/>
    </vehicle>
    <vehicle id="140" depart="899.18">
        <route edges="E3 E4 E5 E6 E7 E8 9 10 11 0 1 2"/>
    </vehicle>
    <vehicle id="141" depart="905.60">
        <route edges="E13 E5 E6 E7 E8 9 10 11 0 1 2 3 4"/>
    </vehicle>
    <vehicle id="142" depart="912.03">
        <route edges="9 10 11 E0 E1 E2 E3 E4 E5 E6"/>
    </vehicle>
    <vehicle id="143" depart="918.45">
        <route edges="E6 E7 E8 9 10"/>
    </vehicle>
    <vehicle id="144" depart="924.87">
        <route edges="8 9 10 11 0 1 2 3 4"/>
    </vehicle>
    <vehicle id="145" depart="931.29">
        <route edges="0 1 2 3 4 5 6 7 8 9 10 11 E0 E1 E2 E3"/>
    </vehicle>
    <vehicle id="146" depart="937.72">
        <route edges="E13 E5 E6 E7 E8 9 10 11 0 1 2 3 4"/>
    </vehicle>
    <vehicle id="147" depart="944.14">
        <route edges="E3 E4 E5 E6 E7 E8 9 10 11 E0 E1"/>
    </vehicle>
    <vehicle id="148" depart="950.56">
        <route edges="8 9 10 11 0"/>
    </vehicle>
    <vehicle id="149" depart="956.98">
        <route edges="1 2 3 4 5 6 7 8 9 10 11 E0 E1 E2 E3 E4 E5 E6"/>
    </vehicle>
    <vehicle id="150" depart="963.41">
        <route edges="E7 E8 9 10 11 E0 E1"/>
    </vehicle>
    <vehicle id="151" depart="969.83">
        <route edges="E6 E7 E8 9 10 11 E0 E1"/>
    </vehicle>
    <vehicle id="152" depart="976.25">
        <route edges="11"/>
    </vehicle>
    <vehicle id="153" depart="982.68">
        <route edges="5 6 7 8 9 10 11 E0 E1 E2 E3 E4 E5 E6"/>
    </vehicle>
    <vehicle id="154" depart="989.10">
        <route edges="E5"/>
    </vehicle>
    <vehicle id="155" depart="995.52">
        <route edges="E7 E8 9 10 11 0 1 2 3"/>
    </vehicle>
    <vehicle id="156" depart="1001.94">
        <route edges="3 4 5 6 7 8 9 10"/>
    </vehicle>
    <vehicle id="157" depart="1008.37">
        <route edges="E4 E5 E6"/>
    </vehicle>
    <vehicle id="158" depart="1014.79">
        <route edges="7 8 9 10 11 0 1 2 3 E10"/>
    </vehicle>
    <vehicle id="159" depart="1021.21">
        <route edges="11 E0 E1 E2 E3 E4 E5 E6 E7"/>
    </vehicle>
    <vehicle id="160" depart="1027.63">
        <route edges="E6 E7 E8"/>
    </vehicle>
    <vehicle id="161" depart="1034.06">
        <route edges="E5 E6"/>
    </vehicle>
    <vehicle id="162" depart="1040.48">
        <route edges="0 1 2 3 4 5 6 7 8 9 10 11 E0 E1 E2"/>
    </vehicle>
    <vehicle id="163" depart="1046.90">
        <route edges="5 6 7 8 9 10 11 E0 E1 E2 E3 E4 E5 E6 E7"/>
    </vehicle>
    <vehicle id="164" depart="1053.32">
        <route edges="E5"/>
    </vehicle>
    <vehicle id="165" depart="1059.75">
        <route edges="E5 E6 E7 E8 9 10 11 0 1 2 3 4"/>
    </vehicle>
    <vehicle id="166" depart="1066.17">
        <route edges="E4 E5 E6 E7 E8 9 10"/>
    </vehicle>
    <vehicle id="167" depart="1072.59">
        <route edges="E6 E7 E8 9 10 11 E0 E1 E2 E3 E4 E5"/>
    </vehicle>
    <vehicle id="168" depart="1079.02">
        <route edges="3 4 5 6 7 8 9 10 11 E0 E1 E2 E3 E4"/>
    </vehicle>
    <vehicle id="169" depart="1085.44">
        <route edges="9 10 11 0 1 2 3 4 5"/>
    </vehicle>
    <vehicle id="170" depart="1091.86">
        <route edges="E5 E6 E7 E8 9 10 11 0 1 2 3"/>
    </vehicle>
    <vehicle id="171" depart="1098.28">
        <route edges="0 1 2"/>
    </vehicle>
    <vehicle id="172" depart="1104.71">
        <route edges="5 6 7 8 9 10 11 E0 E1 E2 E3 E4 E5"/>
    </vehicle>
    <vehicle id="173" depart="1111.13">
        <route edges="E9 5 6 7 8 9 10 11 0 1 2 3 4"/>
    </vehicle>
    <vehicle id="174" depart="1117.55">
        <route edges="E13 E5 E6 E7 E8 9 10 11 0 1 2 3 4 5 6 7"/>
    </vehicle>
    <vehicle id="175" depart="1123.97">
        <route edges="E9 5 6 7 8 9 10 11 E0"/>
    </vehicle>
    <vehicle id="176" depart="1130.40">
        <route edges="E8 9 10"/>
    </vehicle>
    <vehicle id="177" depart="1136.82">
        <route edges="E9 5 6 7 8 9 10 11 0 1 2"/>
    </vehicle>
    <vehicle id="178" depart="1143.24">
        <route edges="E9 5 6 7 8 9 10 11 0 1 2 3 4"/>
    </vehicle>
    <vehicle id="179" depart="1149.67">
        <route edges="10 11 0 1 2 3 4 5 6 7 8"/>
    </vehicle>
    <vehicle id="180" depart="1156.09">
        <route edges="E3 E4 E5 E6 E7 E8 9 10 11 0 1 2 3 4 5"/>
    </vehicle>
    <vehicle id="181" depart="1162.51">
        <route edges="E12 11 E0"/>
    </vehicle>
    <vehicle id="182" depart="1168.93">
        <route edges="7 8 9 10 11 E0 E1"/>
    </vehicle>
    <vehicle id="183" depart="1175.36">
        <route edges="4 5 6 7 8 9 10 11 E0 E1 E2"/>
    </vehicle>
    <vehicle id="184" depart="1181.78">
        <route edges="0 1 2 3 4 5 6 7 8 9 10 11 E0 E1 E2 E3 E4 E5 E6 E7"/>
    </vehicle>
    <vehicle id="185" depart="1188.20">
        <route edges="E0 E1 E2"/>
    </vehicle>
    <vehicle id="186" depart="1194.62">
        <route edges="E3 E14"/>
    </vehicle>
    <vehicle id="187" depart="1201.05">
        <route edges="6 7 8 9 10 11 0 1"/>
    </vehicle>
    <vehicle id="188" depart="1207.47">
        <route edges="E13 E5 E6 E7 E8 9 10 11 0 1 2 3 4 5"/>
    </vehicle>
    <vehicle id="189" depart="1213.89">
        <route edges="5 6 7 8 9 10 11 E0 E1 E2 E3 E4 E5"/>
    </vehicle>
    <vehicle id="190" depart="1220.32">
        <route edges="E3 E4 E5 E6 E7 E8 9 10 11 0 1 2 3 4 5"/>
    </vehicle>
    <vehicle id="191" depart="1226.74">
        <route edges="5 6 7"/>
    </vehicle>
    <vehicle id="192" depart="1233.16">
        <route edges="7 8 9 10 11 0 1 2 3 4 5"/>
    </vehicle>
    <vehicle id="193" depart="1239.58">
        <route edges="11 0 1 2 3 4 5 6 7 8"/>
    </vehicle>
    <vehicle id="194" depart="1246.01">
        <route edges="E8 9 10 11 E0 E1 E2 E3 E14"/>
    </vehicle>
    <vehicle id="195" depart="1252.43">
        <route edges="E7 E8 9 10 11 0 1 2 3 E10"/>
    </vehicle>
    <vehicle id="196" depart="1258.85">
        <route edges="5 6 7 8 9 10 11 E0 E1"/>
    </vehicle>
    <vehicle id="197" depart="1265.27">
        <route edges="0 1 2 3 4"/>
    </vehicle>
    <vehicle id="198" depart="1271.70">
        <route edges="8 9 10 11 E0 E1"/>
    </vehicle>
    <vehicle id="199" depart="1278.12">
        <route edges="E13 E5 E6 E7 E8 9"/>
    </vehicle>
    <vehicle id="200" depart="1284.54">
        <route edges="8 9 10 11 0 1 2 3"/>
    </vehicle>
    <vehicle id="201" depart="1290.97">
        <route edges="9 10 11 E0 E1 E2 E3 E4 E5 E6"/>
    </vehicle>
    <vehicle id="202" depart="1297.39">
        <route edges="E5 E6 E7 E8 9 10 11 0 1 2"/>
    </vehicle>
    <vehicle id="203" depart="1303.81">
        <route edges="10 11 E0"/>
    </vehicle>
    <vehicle id="204" depart="1310.23">
        <route edges="E13 E5 E6 E7 E8 9 10 11 0 1 2 3 4 5 6"/>
    </vehicle>
    <vehicle id="205" depart="1316.66">
        <route edges="E5 E6 E7 E8 9 10 11 E0 E1 E2 E3"/>
    </vehicle>
    <vehicle id="206" depart="1323.08">
        <route edges="E2 E3 E4 E5 E6 E7 E8 9 10 11 0 1 2 3"/>
    </vehicle>
    <vehicle id="207" depart="1329.50">
        <route edges="2 3 4 5 6 7 8 9 10 11 0"/>
    </vehicle>
    <vehicle id="208" depart="1335.92">
        <route edges="3 4 5 6 7 8 9"/>
    </vehicle>
    <vehicle id="209" depart="1342.35">
        <route edges="E6 E7 E8 9 10 11 0 1"/>
    </vehicle>
    <vehicle id="210" depart="1348.77">
        <route edges="7 8 9 E11"/>
    </vehicle>
    <vehicle id="211" depart="1355.19">
        <route edges="2 3 4 5 6 7 8 9 10 11 E0 E1 E2 E3 E14"/>
    </vehicle>
    <vehicle id="212" depart="1361.62">
        <route edges="9 10 11 0 1 2 3"/>
    </vehicle>
    <vehicle id="213" depart="1368.04">
        <route edges="E13 E5 E6 E7 E8 9 10 11 0"/>
    </vehicle>
    <vehicle id="214" depart="1374.46">
        <route edges="E4 E5 E6 E7 E8 9 10 11 E0 E1 E2 E3"/>
    </vehicle>
    <vehicle id="215" depart="1380.88">
        <route edges="10 11 0 1 2 3 4 5 6 7 8"/>
    </vehicle>
    <vehicle id="216" depart="1387.31">
        <route edges="2 3 4 5 6 7 8 9 10 11 E0 E1 E2 E3 E4 E5 E6 E7"/>
    </vehicle>
    <vehicle id="217" depart="1393.73">
        <route edges="E0 E1 E2 E3 E4 E5 E6 E7 E8 9 10 11 0 1"/>
    </vehicle>
    <vehicle id="218" depart="1400.15">
        <route edges="3 4 5 6 7 8 9 10 11 E0 E1 E2 E3 E4 E5"/>
    </vehicle>
    <vehicle id="219" depart="1406.57">
        <route edges="8 9 10 11 E0 E1 E2 E3 E4"/>
    </vehicle>
    <vehicle id="220" depart="1413.00">
        <route edges="E2 E3 E4 E5 E6 E7 E8"/>
    </vehicle>
    <vehicle id="221" depart="1419.42">
        <route edges="E12 11 E0 E1 E2 E3 E4 E5 E6 E7"/>
    </vehicle>
    <vehicle id="222" depart="1425.84">
        <route edges="E7 E8 9 10 11 0 1 2 3 E10"/>
    </vehicle>
    <vehicle id="223" depart="1432.26">
        <route edges="E3 E4 E5 E6 E7 E8 9 10 11 E0"/>
    </vehicle>
    <vehicle id="224" depart="1438.69">
        <route edges="E5 E6 E7 E8 9 10 11 E0 E1"/>
    </vehicle>
    <vehicle id="225" depart="1445.11">
        <route edges="E7 E8 9 10 11 E0 E1 E2"/>
    </vehicle>
    <vehicle id="226" depart="1451.53">
        <route edges="9 10 11 0 1 2 3 4"/>
    </vehicle>
    <vehicle id="227" depart="1457.96">
        <route edges="3 4 5 6 7 8 9 E11"/>
    </vehicle>
    <vehicle id="228" depart="1464.38">
        <route edges="E4 E5 E6 E7 E8 9 10 11 E0"/>
    </vehicle>
    <vehicle id="229" depart="1470.80">
        <route edges="E13 E5 E6 E7 E8 9 10 11 0 1 2 3 4"/>
    </vehicle>
    <vehicle id="230" depart="1477.22">
        <route edges="1 2 3 4"/>
    </vehicle>
    <vehicle id="231" depart="1483.65">
        <route edges="4 5"/>
    </vehicle>
    <vehicle id="232" depart="1490.07">
        <route edges="E0 E1 E2 E3 E4 E5 E6 E7 E8 9 10 11"/>
    </vehicle>
    <vehicle id="233" depart="1496.49">
        <route edges="3 4 5 6 7 8 9 10 11 E0 E1 E2 E3 E14"/>
    </vehicle>
    <vehicle id="234" depart="1502.91">
        <route edges="E2 E3 E4 E5 E6 E7 E8 9 10 11 0 1"/>
    </vehicle>
    <vehicle id="235" depart="1509.34">
        <route edges="7 8 9 10 11 E0 E1"/>
    </vehicle>
    <vehicle id="236" depart="1515.76">
        <route edges="7 8 9 10 11 0 1 2"/>
    </vehicle>
    <vehicle id="237" depart="1522.18">
        <route edges="8 9 10 11 E0 E1 E2 E3 E4 E5 E6"/>
    </vehicle>
    <vehicle id="238" depart="1528.61">
        <route edges="E12 11 E0 E1 E2 E3 E14"/>
    </vehicle>
    <vehicle id="239" depart="1535.03">
        <route edges="E6 E7 E8 9 10 11 E0 E1 E2 E3"/>
    </vehicle>
    <vehicle id="240" depart="1541.45">
        <route edges="7 8 9 10 11 0"/>
    </vehicle>
    <vehicle id="241" depart="1547.87">
        <route edges="6 7 8 9 10 11 E0 E1 E2 E3"/>
    </vehicle>
    <vehicle id="242" depart="1554.30">
        <route edges="E6 E7"/>
    </vehicle>
    <vehicle id="243" depart="1560.72">
        <route edges="8 9 10 11 E0 E1 E2"/>
    </vehicle>
    <vehicle id="244" depart="1567.14">
        <route edges="E1 E2 E3 E4 E5 E6 E7 E8 9 10 11 0 1 2 3 E10"/>
    </vehicle>
    <vehicle id="245" depart="1573.56">
        <route edges="3"/>
    </vehicle>
    <vehicle id="246" depart="1579.99">
        <route edges="8 9 10 11 0"/>
    </vehicle>
    <vehicle id="247" depart="1586.41">
        <route edges="6 7 8 9 10 11 E0 E1 E2 E3 E14"/>
    </vehicle>
    <vehicle id="248" depart="1592.83">
        <route edges="7 8 9 10 11"/>
    </vehicle>
    <vehicle id="249" depart="1599.26">
        <route edges="9 10 11"/>
    </vehicle>
    <vehicle id="250" depart="1605.68">
        <route edges="E12 11 0"/>
    </vehicle>
    <vehicle id="251" depart="1612.10">
        <route edges="7 8 9 10 11 E0 E1"/>
    </vehicle>
    <vehicle id="252" depart="1618.52">
        <route edges="0 1 2 3 4 5 6 7 8 9 E11"/>
    </vehicle>
    <vehicle id="253" depart="1624.95">
        <route edges="11 0 1 2 3 4 5 6 7 8 9"/>
    </vehicle>
    <vehicle id="254" depart="1631.37">
        <route edges="1 2 3 4 5 6 7"/>
    </vehicle>
    <vehicle id="255" depart="1637.79">
        <route edges="3 4 5"/>
    </vehicle>
    <vehicle id="256" depart="1644.21">
        <route edges="E4 E5 E6 E7 E8 9 10 11 0 1 2 3 4 5 6 7"/>
    </vehicle>
    <vehicle id="257" depart="1650.64">
        <route edges="E4"/>
    </vehicle>
    <vehicle id="258" depart="1657.06">
        <route edges="4 5 6 7 8 9 10 11 0 1"/>
    </vehicle>
    <vehicle id="259" depart="1663.48">
        <route edges="0 1 2 3 4 5 6 7 8 9 10 11 E0"/>
    </vehicle>
    <vehicle id="260" depart="1669.91">
        <route edges="E9 5 6"/>
    </vehicle>
    <vehicle id="261" depart="1676.33">
        <route edges="E13 E5 E6 E7 E8 9 10 11 E0 E1 E2 E3"/>
    </vehicle>
    <vehicle id="262" depart="1682.75">
        <route edges="E13 E5 E6 E7 E8 9 10 11 E0 E1 E2 E3"/>
    </vehicle>
    <vehicle id="263" depart="1689.17">
        <route edges="E8 9 10 11 0 1 2"/>
    </vehicle>
    <vehicle id="264" depart="1695.60">
        <route edges="0 1 2 3 4 5 6 7 8 9 10 11"/>
    </vehicle>
    <vehicle id="265" depart="1702.02">
        <route edges="11 E0 E1 E2 E3 E14"/>
    </vehicle>
    <vehicle id="266" depart="1708.44">
        <route edges="E1 E2 E3 E4 E5 E6 E7 E8 9 10 11 0 1 2 3"/>
    </vehicle>
    <vehicle id="267" depart="1714.86">
        <route edges="E2 E3"/>
    </vehicle>
    <vehicle id="268" depart="1721.29">
        <route edges="2 3 E10"/>
    </vehicle>
    <vehicle id="269" depart="1727.71">
        <route edges="E3 E4 E5 E6 E7 E8 9 10"/>
    </vehicle>
    <vehicle id="270" depart="1734.13">
        <route edges="E5 E6 E7 E8"/>
    </vehicle>
    <vehicle id="271" depart="1740.56">
        <route edges="10 11 0"/>
    </vehicle>
    <vehicle id="272" depart="1746.98">
        <route edges="5 6 7 8 9 10 11 E0 E1 E2 E3 E14"/>
    </vehicle>
    <vehicle id="273" depart="1753.40">
        <route edges="E8 9 10 11 0 1 2 3 4 5 6 7"/>
    </vehicle>
    <vehicle id="274" depart="1759.82">
        <route edges="E3 E4 E5 E6 E7 E8 9 10 11 0 1"/>
    </vehicle>
    <vehicle id="275" depart="1766.25">
        <route edges="E2 E3 E4 E5 E6 E7 E8 9 E11"/>
    </vehicle>
    <vehicle id="276" depart="1772.67">
        <route edges="10 11 E0 E1 E2 E3"/>
    </vehicle>
    <vehicle id="277" depart="1779.09">
        <route edges="E6 E7 E8 9 10 11 0 1 2 3 E10"/>
    </vehicle>
    <vehicle id="278" depart="1785.51">
        <route edges="10 11 E0 E1 E2 E3 E4 E5 E6 E7 E8"/>
    </vehicle>
    <vehicle id="279" depart="1791.94">
        <route edges="E4 E5 E6 E7 E8 9 10 11 0 1 2 3 4 5 6"/>
    </vehicle>
    <vehicle id="280" depart="1798.36">
        <route edges="8 9 10 11 0 1 2 3 4 5 6"/>
    </vehicle>
    <vehicle id="281" depart="1804.78">