<?xml version="1.0" encoding="UTF-8"?>

<!-- generated on 2024-01-25 17:08:58 by Eclipse SUMO netconvert Version 1.14.1
<configuration xmlns:xsi="http://www.w3.org/2001/XMLSchema-instance" xsi:noNamespaceSchemaLocation="http://sumo.dlr.de/xsd/netconvertConfiguration.xsd">

    <input>
        <osm-files value="testNodes.osm"/>
    </input>

    <output>
        <output-file value="testNodes.net.xml"/>
        <ptstop-output value="additional.xml"/>
        <ptline-output value="lines.xml"/>
    </output>

    <projection>
        <proj.utm value="true"/>
    </projection>

</configuration>
-->

<net version="1.9" junctionCornerDetail="5" limitTurnSpeed="5.50" xmlns:xsi="http://www.w3.org/2001/XMLSchema-instance" xsi:noNamespaceSchemaLocation="http://sumo.dlr.de/xsd/net_file.xsd">

    <location netOffset="-371844.51,-143723.40" convBoundary="0.00,0.00,11673.51,11765.20" origBoundary="103.848050,1.300068,103.952989,1.406569" projParameter="+proj=utm +zone=48 +ellps=WGS84 +datum=WGS84 +units=m +no_defs"/>

    <type id="highway.bridleway" priority="1" numLanes="1" speed="2.78" allow="pedestrian" oneway="1" width="2.00"/>
    <type id="highway.bus_guideway" priority="1" numLanes="1" speed="27.78" allow="bus" oneway="1"/>
    <type id="highway.cycleway" priority="1" numLanes="1" speed="5.56" allow="bicycle" oneway="0" width="1.00"/>
    <type id="highway.footway" priority="1" numLanes="1" speed="2.78" allow="pedestrian" oneway="1" width="2.00"/>
    <type id="highway.ford" priority="1" numLanes="1" speed="2.78" allow="army" oneway="0"/>
    <type id="highway.living_street" priority="2" numLanes="1" speed="2.78" disallow="tram rail_urban rail rail_electric rail_fast ship" oneway="0"/>
    <type id="highway.motorway" priority="14" numLanes="2" speed="39.44" allow="private emergency authority army vip passenger hov taxi bus coach delivery truck trailer motorcycle evehicle custom1 custom2" oneway="1"/>
    <type id="highway.motorway_link" priority="9" numLanes="1" speed="22.22" allow="private emergency authority army vip passenger hov taxi bus coach delivery truck trailer motorcycle evehicle custom1 custom2" oneway="1"/>
    <type id="highway.path" priority="1" numLanes="1" speed="5.56" allow="pedestrian bicycle" oneway="0" width="2.00"/>
    <type id="highway.pedestrian" priority="1" numLanes="1" speed="2.78" allow="pedestrian" oneway="1" width="2.00"/>
    <type id="highway.primary" priority="12" numLanes="2" speed="27.78" disallow="tram rail_urban rail rail_electric rail_fast ship" oneway="0"/>
    <type id="highway.primary_link" priority="7" numLanes="1" speed="22.22" disallow="tram rail_urban rail rail_electric rail_fast ship" oneway="0"/>
    <type id="highway.raceway" priority="15" numLanes="2" speed="83.33" allow="vip" oneway="0"/>
    <type id="highway.residential" priority="3" numLanes="1" speed="13.89" disallow="tram rail_urban rail rail_electric rail_fast ship" oneway="0"/>
    <type id="highway.secondary" priority="11" numLanes="1" speed="27.78" disallow="tram rail_urban rail rail_electric rail_fast ship" oneway="0"/>
    <type id="highway.secondary_link" priority="6" numLanes="1" speed="22.22" disallow="tram rail_urban rail rail_electric rail_fast ship" oneway="0"/>
    <type id="highway.service" priority="1" numLanes="1" speed="5.56" allow="pedestrian delivery bicycle" oneway="0"/>
    <type id="highway.stairs" priority="1" numLanes="1" speed="1.39" allow="pedestrian" oneway="1" width="2.00"/>
    <type id="highway.step" priority="1" numLanes="1" speed="1.39" allow="pedestrian" oneway="1" width="2.00"/>
    <type id="highway.steps" priority="1" numLanes="1" speed="1.39" allow="pedestrian" oneway="1" width="2.00"/>
    <type id="highway.tertiary" priority="10" numLanes="1" speed="22.22" disallow="tram rail_urban rail rail_electric rail_fast ship" oneway="0"/>
    <type id="highway.tertiary_link" priority="5" numLanes="1" speed="22.22" disallow="tram rail_urban rail rail_electric rail_fast ship" oneway="0"/>
    <type id="highway.track" priority="1" numLanes="1" speed="5.56" allow="pedestrian motorcycle moped bicycle" oneway="0"/>
    <type id="highway.trunk" priority="13" numLanes="2" speed="27.78" disallow="pedestrian bicycle tram rail_urban rail rail_electric rail_fast ship" oneway="0"/>
    <type id="highway.trunk_link" priority="8" numLanes="1" speed="22.22" disallow="pedestrian bicycle tram rail_urban rail rail_electric rail_fast ship" oneway="0"/>
    <type id="highway.unclassified" priority="4" numLanes="1" speed="13.89" disallow="tram rail_urban rail rail_electric rail_fast ship" oneway="0"/>
    <type id="highway.unsurfaced" priority="1" numLanes="1" speed="8.33" disallow="tram rail_urban rail rail_electric rail_fast ship" oneway="0"/>
    <type id="railway.highspeed" priority="21" numLanes="1" speed="69.44" allow="rail_fast" oneway="1"/>
    <type id="railway.light_rail" priority="19" numLanes="1" speed="27.78" allow="rail_urban" oneway="1"/>
    <type id="railway.preserved" priority="16" numLanes="1" speed="27.78" allow="rail" oneway="1"/>
    <type id="railway.rail" priority="20" numLanes="1" speed="44.44" allow="rail" oneway="1"/>
    <type id="railway.subway" priority="18" numLanes="1" speed="27.78" allow="rail_urban" oneway="1"/>
    <type id="railway.tram" priority="17" numLanes="1" speed="13.89" allow="tram" oneway="1"/>

    <edge id=":10141971800_0" function="internal">
        <lane id=":10141971800_0_0" index="0" disallow="tram rail_urban rail rail_electric rail_fast ship" speed="13.89" length="0.15" shape="6012.82,1885.37 6012.68,1885.34"/>
        <lane id=":10141971800_0_1" index="1" disallow="tram rail_urban rail rail_electric rail_fast ship" speed="13.89" length="0.15" shape="6013.37,1882.21 6013.22,1882.19"/>
        <lane id=":10141971800_0_2" index="2" disallow="tram rail_urban rail rail_electric rail_fast ship" speed="13.89" length="0.15" shape="6013.91,1879.06 6013.76,1879.04"/>
        <lane id=":10141971800_0_3" index="3" disallow="tram rail_urban rail rail_electric rail_fast ship" speed="13.89" length="0.15" shape="6014.46,1875.91 6014.31,1875.88"/>
    </edge>
    <edge id=":10141971800_4" function="internal">
        <lane id=":10141971800_4_0" index="0" allow="bus bicycle" speed="13.89" length="0.15" shape="6014.85,1872.73 6015.00,1872.76"/>
    </edge>
    <edge id=":10264901493_0" function="internal">
        <lane id=":10264901493_0_0" index="0" disallow="tram rail_urban rail rail_electric rail_fast ship" speed="16.67" length="8.20" shape="3215.58,8087.13 3215.07,8084.81 3214.34,8083.31 3213.59,8081.81 3213.01,8079.49"/>
        <lane id=":10264901493_0_1" index="1" disallow="tram rail_urban rail rail_electric rail_fast ship" speed="16.67" length="8.20" shape="3218.76,8086.77 3218.25,8084.43 3217.51,8082.91 3216.76,8081.39 3216.18,8079.05"/>
        <lane id=":10264901493_0_2" index="2" disallow="tram rail_urban rail rail_electric rail_fast ship" speed="16.67" length="8.20" shape="3221.94,8086.42 3221.43,8084.05 3220.69,8082.51 3219.93,8080.97 3219.35,8078.61"/>
    </edge>
    <edge id=":10732302215_0" function="internal">
        <lane id=":10732302215_0_0" index="0" disallow="tram rail_urban rail rail_electric rail_fast ship" speed="13.89" length="0.10" shape="5881.95,208.04 5881.95,208.04"/>
        <lane id=":10732302215_0_1" index="1" disallow="tram rail_urban rail rail_electric rail_fast ship" speed="13.89" length="0.10" shape="5879.11,206.56 5879.11,206.56"/>
    </edge>
    <edge id=":10732302220_0" function="internal">
        <lane id=":10732302220_0_0" index="0" disallow="tram rail_urban rail rail_electric rail_fast ship" speed="16.67" length="0.30" shape="6378.56,303.60 6378.82,303.77"/>
        <lane id=":10732302220_0_1" index="1" disallow="tram rail_urban rail rail_electric rail_fast ship" speed="16.67" length="0.30" shape="6376.82,306.29 6377.07,306.45"/>
        <lane id=":10732302220_0_2" index="2" disallow="tram rail_urban rail rail_electric rail_fast ship" speed="16.67" length="0.30" shape="6375.08,308.97 6375.33,309.13"/>
    </edge>
    <edge id=":10732302221_0" function="internal">
        <lane id=":10732302221_0_0" index="0" disallow="tram rail_urban rail rail_electric rail_fast ship" speed="16.67" length="0.30" shape="6381.32,300.37 6381.06,300.22"/>
        <lane id=":10732302221_0_1" index="1" disallow="tram rail_urban rail rail_electric rail_fast ship" speed="16.67" length="0.30" shape="6382.99,297.64 6382.74,297.49"/>
        <lane id=":10732302221_0_2" index="2" disallow="tram rail_urban rail rail_electric rail_fast ship" speed="16.67" length="0.30" shape="6384.66,294.92 6384.41,294.76"/>
    </edge>
    <edge id=":10852715549_0" function="internal">
        <lane id=":10852715549_0_0" index="0" allow="pedestrian bus delivery bicycle" speed="5.56" length="9.03" shape="5832.28,2124.14 5829.81,2124.00 5827.89,2124.68 5826.52,2126.20 5825.71,2128.54"/>
    </edge>
    <edge id=":10852715549_1" function="internal">
        <lane id=":10852715549_1_0" index="0" allow="pedestrian bus delivery bicycle" speed="5.56" length="11.20" shape="5832.28,2124.14 5821.31,2121.92"/>
    </edge>
    <edge id=":10852715550_0" function="internal">
        <lane id=":10852715550_0_0" index="0" allow="pedestrian bus delivery bicycle" speed="5.56" length="9.01" shape="5822.71,2143.84 5822.58,2146.31 5823.27,2148.23 5824.77,2149.60 5827.09,2150.42"/>
    </edge>
    <edge id=":10852715550_1" function="internal">
        <lane id=":10852715550_1_0" index="0" allow="pedestrian bus delivery bicycle" speed="5.56" length="11.15" shape="5816.16,2148.22 5827.09,2150.42"/>
    </edge>
    <edge id=":1150197070_0" function="internal">
        <lane id=":1150197070_0_0" index="0" disallow="pedestrian bicycle tram rail_urban rail rail_electric rail_fast ship" speed="16.67" length="8.17" shape="6351.12,2377.31 6351.67,2379.69 6352.41,2381.24 6353.13,2382.79 6353.63,2385.17"/>
        <lane id=":1150197070_0_1" index="1" disallow="pedestrian bicycle tram rail_urban rail rail_electric rail_fast ship" speed="16.67" length="8.17" shape="6347.95,2377.71 6348.49,2380.07 6349.23,2381.60 6349.95,2383.14 6350.45,2385.50"/>
        <lane id=":1150197070_0_2" index="2" disallow="pedestrian bicycle tram rail_urban rail rail_electric rail_fast ship" speed="16.67" length="8.17" shape="6344.77,2378.11 6345.32,2380.45 6346.05,2381.97 6346.77,2383.49 6347.27,2385.83"/>
        <lane id=":1150197070_0_3" index="3" disallow="pedestrian bicycle tram rail_urban rail rail_electric rail_fast ship" speed="16.67" length="8.17" shape="6341.60,2378.51 6342.14,2380.83 6342.87,2382.33 6343.59,2383.84 6344.08,2386.16"/>
        <lane id=":1150197070_0_4" index="4" disallow="pedestrian bicycle tram rail_urban rail rail_electric rail_fast ship" speed="16.67" length="8.17" shape="6341.60,2378.51 6341.64,2380.87 6341.28,2382.50 6340.91,2384.12 6340.90,2386.49"/>
    </edge>
    <edge id=":1150246842_0" function="internal">
        <lane id=":1150246842_0_0" index="0" disallow="pedestrian bicycle tram rail_urban rail rail_electric rail_fast ship" speed="16.67" length="0.30" shape="6396.68,2621.02 6396.63,2620.70"/>
        <lane id=":1150246842_0_1" index="1" disallow="pedestrian bicycle tram rail_urban rail rail_electric rail_fast ship" speed="16.67" length="0.30" shape="6399.84,2620.56 6399.80,2620.25"/>
        <lane id=":1150246842_0_2" index="2" disallow="pedestrian bicycle tram rail_urban rail rail_electric rail_fast ship" speed="16.67" length="0.30" shape="6403.01,2620.10 6402.97,2619.81"/>
        <lane id=":1150246842_0_3" index="3" disallow="pedestrian bicycle tram rail_urban rail rail_electric rail_fast ship" speed="16.67" length="0.30" shape="6406.18,2619.63 6406.14,2619.36"/>
    </edge>
    <edge id=":1150246900_0" function="internal">
        <lane id=":1150246900_0_0" index="0" disallow="pedestrian bicycle tram rail_urban rail rail_electric rail_fast ship" speed="16.67" length="0.30" shape="6354.23,2300.88 6354.20,2300.57"/>
        <lane id=":1150246900_0_1" index="1" disallow="pedestrian bicycle tram rail_urban rail rail_electric rail_fast ship" speed="16.67" length="0.30" shape="6357.41,2300.52 6357.38,2300.21"/>
        <lane id=":1150246900_0_2" index="2" disallow="pedestrian bicycle tram rail_urban rail rail_electric rail_fast ship" speed="16.67" length="0.30" shape="6360.59,2300.15 6360.56,2299.86"/>
        <lane id=":1150246900_0_3" index="3" disallow="pedestrian bicycle tram rail_urban rail rail_electric rail_fast ship" speed="16.67" length="0.30" shape="6363.77,2299.79 6363.74,2299.50"/>
    </edge>
    <edge id=":1150246910_0" function="internal">
        <lane id=":1150246910_0_0" index="0" disallow="pedestrian bicycle tram rail_urban rail rail_electric rail_fast ship" speed="16.67" length="0.30" shape="6364.79,2405.02 6364.75,2404.70"/>
        <lane id=":1150246910_0_1" index="1" disallow="pedestrian bicycle tram rail_urban rail rail_electric rail_fast ship" speed="16.67" length="0.30" shape="6367.97,2404.63 6367.93,2404.32"/>
        <lane id=":1150246910_0_2" index="2" disallow="pedestrian bicycle tram rail_urban rail rail_electric rail_fast ship" speed="16.67" length="0.30" shape="6371.14,2404.24 6371.10,2403.94"/>
        <lane id=":1150246910_0_3" index="3" disallow="pedestrian bicycle tram rail_urban rail rail_electric rail_fast ship" speed="16.67" length="0.30" shape="6374.32,2403.84 6374.28,2403.56"/>
        <lane id=":1150246910_0_4" index="4" disallow="pedestrian bicycle tram rail_urban rail rail_electric rail_fast ship" speed="16.67" length="0.30" shape="6377.49,2403.45 6377.46,2403.17"/>
    </edge>
    <edge id=":1150246913_0" function="internal">
        <lane id=":1150246913_0_0" index="0" disallow="pedestrian bicycle tram rail_urban rail rail_electric rail_fast ship" speed="16.67" length="8.18" shape="6380.59,2512.00 6379.97,2509.64 6379.19,2508.12 6378.41,2506.59 6377.84,2504.23"/>
        <lane id=":1150246913_0_1" index="1" disallow="pedestrian bicycle tram rail_urban rail rail_electric rail_fast ship" speed="16.67" length="8.18" shape="6383.76,2511.50 6383.14,2509.16 6382.35,2507.65 6381.58,2506.14 6381.01,2503.79"/>
        <lane id=":1150246913_0_2" index="2" disallow="pedestrian bicycle tram rail_urban rail rail_electric rail_fast ship" speed="16.67" length="8.18" shape="6386.92,2511.01 6386.30,2508.69 6385.52,2507.19 6384.75,2505.69 6384.18,2503.36"/>
        <lane id=":1150246913_0_3" index="3" disallow="pedestrian bicycle tram rail_urban rail rail_electric rail_fast ship" speed="16.67" length="8.18" shape="6390.08,2510.52 6389.47,2508.21 6388.69,2506.72 6387.92,2505.24 6387.35,2502.92"/>
        <lane id=":1150246913_0_4" index="4" disallow="pedestrian bicycle tram rail_urban rail rail_electric rail_fast ship" speed="16.67" length="8.18" shape="6390.08,2510.52 6389.96,2508.15 6390.27,2506.51 6390.59,2504.86 6390.52,2502.49"/>
    </edge>
    <edge id=":1167537187_0" function="internal">
        <lane id=":1167537187_0_0" index="0" disallow="tram rail_urban rail rail_electric rail_fast ship" speed="16.67" length="8.15" shape="5387.46,11190.44 5386.81,11188.22 5385.99,11186.81 5385.13,11185.41 5384.39,11183.21"/>
        <lane id=":1167537187_0_1" index="1" disallow="tram rail_urban rail rail_electric rail_fast ship" speed="16.67" length="8.15" shape="5390.61,11189.88 5389.95,11187.62 5389.12,11186.19 5388.26,11184.76 5387.52,11182.52"/>
        <lane id=":1167537187_0_2" index="2" disallow="tram rail_urban rail rail_electric rail_fast ship" speed="16.67" length="8.15" shape="5393.76,11189.32 5393.10,11187.02 5392.26,11185.56 5391.40,11184.11 5390.64,11181.83"/>
        <lane id=":1167537187_0_3" index="3" disallow="tram rail_urban rail rail_electric rail_fast ship" speed="16.67" length="8.15" shape="5396.91,11188.75 5396.24,11186.42 5395.40,11184.94 5394.53,11183.46 5393.77,11181.14"/>
        <lane id=":1167537187_0_4" index="4" disallow="tram rail_urban rail rail_electric rail_fast ship" speed="16.67" length="8.15" shape="5396.91,11188.75 5396.73,11186.30 5396.96,11184.59 5397.17,11182.89 5396.89,11180.46"/>
    </edge>
    <edge id=":1167544109_0" function="internal">
        <lane id=":1167544109_0_0" index="0" disallow="tram rail_urban rail rail_electric rail_fast ship" speed="16.67" length="8.12" shape="5843.70,11735.87 5845.78,11734.87 5847.02,11733.83 5848.25,11732.75 5850.28,11731.64"/>
        <lane id=":1167544109_0_1" index="1" disallow="tram rail_urban rail rail_electric rail_fast ship" speed="16.67" length="8.12" shape="5844.77,11738.89 5846.89,11737.87 5848.16,11736.81 5849.42,11735.72 5851.50,11734.60"/>
        <lane id=":1167544109_0_2" index="2" disallow="tram rail_urban rail rail_electric rail_fast ship" speed="16.67" length="8.12" shape="5845.83,11741.90 5848.00,11740.87 5849.30,11739.80 5850.60,11738.70 5852.72,11737.56"/>
        <lane id=":1167544109_0_3" index="3" disallow="tram rail_urban rail rail_electric rail_fast ship" speed="16.67" length="8.12" shape="5846.90,11744.92 5849.11,11743.87 5850.45,11742.79 5851.77,11741.68 5853.94,11740.51"/>
    </edge>
    <edge id=":1167567948_0" function="internal">
        <lane id=":1167567948_0_0" index="0" disallow="tram rail_urban rail rail_electric rail_fast ship" speed="16.67" length="8.08" shape="5884.05,11720.93 5886.05,11719.78 5887.22,11718.65 5888.36,11717.47 5890.30,11716.21"/>
        <lane id=":1167567948_0_1" index="1" disallow="tram rail_urban rail rail_electric rail_fast ship" speed="16.67" length="8.08" shape="5885.33,11723.86 5887.39,11722.69 5888.58,11721.54 5889.76,11720.35 5891.76,11719.06"/>
        <lane id=":1167567948_0_2" index="2" disallow="tram rail_urban rail rail_electric rail_fast ship" speed="16.67" length="8.08" shape="5886.61,11726.79 5888.72,11725.60 5889.95,11724.43 5891.17,11723.23 5893.21,11721.91"/>
    </edge>
    <edge id=":1167567983_0" function="internal">
        <lane id=":1167567983_0_0" index="0" disallow="tram rail_urban rail rail_electric rail_fast ship" speed="16.67" length="0.27" shape="5906.81,11707.76 5906.98,11707.68"/>
        <lane id=":1167567983_0_1" index="1" disallow="tram rail_urban rail rail_electric rail_fast ship" speed="16.67" length="0.27" shape="5908.27,11710.61 5908.51,11710.49"/>
        <lane id=":1167567983_0_2" index="2" disallow="tram rail_urban rail rail_electric rail_fast ship" speed="16.67" length="0.27" shape="5909.72,11713.46 5910.03,11713.30"/>
    </edge>
    <edge id=":1215011718_0" function="internal">
        <lane id=":1215011718_0_0" index="0" disallow="tram rail_urban rail rail_electric rail_fast ship" speed="16.67" length="8.60" shape="2294.97,6128.76 2292.44,6129.00 2290.76,6129.92 2289.09,6130.82 2286.56,6131.00"/>
        <lane id=":1215011718_0_1" index="1" disallow="tram rail_urban rail rail_electric rail_fast ship" speed="16.67" length="8.60" shape="2295.31,6125.58 2292.79,6125.82 2291.13,6126.74 2289.47,6127.65 2286.96,6127.83"/>
        <lane id=":1215011718_0_2" index="2" disallow="tram rail_urban rail rail_electric rail_fast ship" speed="16.67" length="8.60" shape="2295.64,6122.40 2293.15,6122.64 2291.50,6123.56 2289.86,6124.47 2287.37,6124.66"/>
        <lane id=":1215011718_0_3" index="3" disallow="tram rail_urban rail rail_electric rail_fast ship" speed="16.67" length="8.60" shape="2295.64,6122.40 2287.77,6121.48"/>
    </edge>
    <edge id=":1215011718_4" function="internal">
        <lane id=":1215011718_4_0" index="0" allow="bus bicycle" speed="16.67" length="7.85" shape="2288.18,6118.31 2295.98,6119.22"/>
    </edge>
    <edge id=":1215011719_0" function="internal">
        <lane id=":1215011719_0_0" index="0" allow="bus bicycle" speed="16.67" length="0.86" shape="2297.53,6139.46 2296.68,6139.37"/>
    </edge>
    <edge id=":1215011719_1" function="internal">
        <lane id=":1215011719_1_0" index="0" disallow="tram rail_urban rail rail_electric rail_fast ship" speed="16.67" length="0.37" shape="2298.04,6129.87 2298.16,6129.88"/>
        <lane id=":1215011719_1_1" index="1" disallow="tram rail_urban rail rail_electric rail_fast ship" speed="16.67" length="0.37" shape="2297.58,6133.04 2297.95,6133.07"/>
        <lane id=":1215011719_1_2" index="2" disallow="tram rail_urban rail rail_electric rail_fast ship" speed="16.67" length="0.37" shape="2297.13,6136.20 2297.74,6136.27"/>
    </edge>
    <edge id=":1268339695_0" function="internal">
        <lane id=":1268339695_0_0" index="0" disallow="tram rail_urban rail rail_electric rail_fast ship" speed="13.89" length="0.22" shape="10638.23,1721.89 10638.14,1721.85"/>
        <lane id=":1268339695_0_1" index="1" disallow="tram rail_urban rail rail_electric rail_fast ship" speed="13.89" length="0.22" shape="10639.61,1719.00 10639.31,1718.87"/>
    </edge>
    <edge id=":1268340041_0" function="internal">
        <lane id=":1268340041_0_0" index="0" disallow="tram rail_urban rail rail_electric rail_fast ship" speed="13.89" length="0.27" shape="10787.75,1792.32 10787.42,1792.23"/>
        <lane id=":1268340041_0_1" index="1" disallow="tram rail_urban rail rail_electric rail_fast ship" speed="13.89" length="0.27" shape="10788.54,1789.22 10788.36,1789.17"/>
    </edge>
    <edge id=":1268340042_0" function="internal">
        <lane id=":1268340042_0_0" index="0" disallow="tram rail_urban rail rail_electric rail_fast ship" speed="13.89" length="0.10" shape="11186.27,1935.23 11186.18,1935.23"/>
        <lane id=":1268340042_0_1" index="1" disallow="tram rail_urban rail rail_electric rail_fast ship" speed="13.89" length="0.10" shape="11186.19,1938.42 11186.27,1938.42"/>
    </edge>
    <edge id=":1268340044_0" function="internal">
        <lane id=":1268340044_0_0" index="0" disallow="tram rail_urban rail rail_electric rail_fast ship" speed="13.89" length="0.29" shape="10873.03,1814.46 10872.76,1814.39"/>
        <lane id=":1268340044_0_1" index="1" disallow="tram rail_urban rail rail_electric rail_fast ship" speed="13.89" length="0.29" shape="10873.85,1811.37 10873.55,1811.29"/>
    </edge>
    <edge id=":1268340045_0" function="internal">
        <lane id=":1268340045_0_0" index="0" disallow="tram rail_urban rail rail_electric rail_fast ship" speed="13.89" length="0.55" shape="11121.94,1926.37 11122.01,1926.42 11122.05,1926.45 11122.10,1926.47 11122.18,1926.51"/>
        <lane id=":1268340045_0_1" index="1" disallow="tram rail_urban rail rail_electric rail_fast ship" speed="13.89" length="0.55" shape="11120.12,1929.00 11120.32,1929.14 11120.46,1929.23 11120.61,1929.31 11120.83,1929.41"/>
    </edge>
    <edge id=":1294427461_0" function="internal">
        <lane id=":1294427461_0_0" index="0" disallow="tram rail_urban rail rail_electric rail_fast ship" speed="15.28" length="9.40" shape="4920.22,1906.07 4921.00,1903.18 4921.76,1901.25 4922.90,1899.51 4924.82,1897.21"/>
        <lane id=":1294427461_0_1" index="1" disallow="tram rail_urban rail rail_electric rail_fast ship" speed="15.28" length="9.40" shape="4923.32,1906.86 4923.98,1904.39 4924.64,1902.74 4925.61,1901.26 4927.25,1899.30"/>
    </edge>
    <edge id=":1294427463_0" function="internal">
        <lane id=":1294427463_0_0" index="0" allow="bus bicycle" speed="16.67" length="0.83" shape="4884.67,2079.94 4884.49,2080.75"/>
    </edge>
    <edge id=":1294427463_1" function="internal">
        <lane id=":1294427463_1_0" index="0" disallow="tram rail_urban rail rail_electric rail_fast ship" speed="16.67" length="0.37" shape="4872.06,2077.72 4872.08,2077.63"/>
        <lane id=":1294427463_1_1" index="1" disallow="tram rail_urban rail rail_electric rail_fast ship" speed="16.67" length="0.37" shape="4875.17,2078.48 4875.22,2078.21"/>
        <lane id=":1294427463_1_2" index="2" disallow="tram rail_urban rail rail_electric rail_fast ship" speed="16.67" length="0.37" shape="4878.28,2079.23 4878.37,2078.78"/>
        <lane id=":1294427463_1_3" index="3" disallow="tram rail_urban rail rail_electric rail_fast ship" speed="16.67" length="0.37" shape="4881.38,2079.99 4881.52,2079.36"/>
    </edge>
    <edge id=":1294427489_0" function="internal">
        <lane id=":1294427489_0_0" index="0" disallow="tram rail_urban rail rail_electric rail_fast ship" speed="16.67" length="0.67" shape="4898.40,1965.84 4898.60,1964.96"/>
        <lane id=":1294427489_0_1" index="1" disallow="tram rail_urban rail rail_electric rail_fast ship" speed="16.67" length="0.67" shape="4901.54,1966.48 4901.70,1965.75"/>
        <lane id=":1294427489_0_2" index="2" disallow="tram rail_urban rail rail_electric rail_fast ship" speed="16.67" length="0.67" shape="4904.67,1967.11 4904.80,1966.54"/>
        <lane id=":1294427489_0_3" index="3" disallow="tram rail_urban rail rail_electric rail_fast ship" speed="16.67" length="0.67" shape="4907.81,1967.75 4907.90,1967.33"/>
    </edge>
    <edge id=":1366319957_0" function="internal">
        <lane id=":1366319957_0_0" index="0" disallow="tram rail_urban rail rail_electric rail_fast ship" speed="13.89" length="0.29" shape="5250.53,863.47 5250.39,863.71"/>
        <lane id=":1366319957_0_1" index="1" disallow="tram rail_urban rail rail_electric rail_fast ship" speed="13.89" length="0.29" shape="5247.77,861.86 5247.62,862.12"/>
    </edge>
    <edge id=":1366319957_2" function="internal">
        <lane id=":1366319957_2_0" index="0" disallow="tram rail_urban rail rail_electric rail_fast ship" speed="13.89" length="0.31" shape="5242.07,858.92 5242.23,858.65"/>
        <lane id=":1366319957_2_1" index="1" disallow="tram rail_urban rail rail_electric rail_fast ship" speed="13.89" length="0.31" shape="5244.84,860.52 5245.00,860.25"/>
    </edge>
    <edge id=":1366319965_0" function="internal">
        <lane id=":1366319965_0_0" index="0" disallow="tram rail_urban rail rail_electric rail_fast ship" speed="4.36" length="5.84" shape="5332.82,636.82 5332.93,638.88 5333.43,639.86 5334.34,639.76 5335.66,638.58"/>
    </edge>
    <edge id=":1366319965_1" function="internal">
        <lane id=":1366319965_1_0" index="0" disallow="tram rail_urban rail rail_electric rail_fast ship" speed="13.89" length="8.53" shape="5332.82,636.82 5333.57,639.28 5335.27,640.78 5336.71,642.23 5336.70,644.54"/>
        <lane id=":1366319965_1_1" index="1" disallow="tram rail_urban rail rail_electric rail_fast ship" speed="13.89" length="8.53" shape="5329.62,636.70 5333.71,643.42"/>
    </edge>
    <edge id=":1366319965_3" function="internal">
        <lane id=":1366319965_3_0" index="0" disallow="tram rail_urban rail rail_electric rail_fast ship" speed="13.89" length="8.57" shape="5327.71,641.18 5329.18,639.56 5331.20,639.59 5333.46,639.76 5335.66,638.58"/>
        <lane id=":1366319965_3_1" index="1" disallow="tram rail_urban rail rail_electric rail_fast ship" speed="13.89" length="8.57" shape="5330.71,642.30 5332.06,640.96 5333.95,641.23 5336.05,641.64 5338.06,640.69"/>
    </edge>
    <edge id=":1366319965_5" function="internal">
        <lane id=":1366319965_5_0" index="0" disallow="tram rail_urban rail rail_electric rail_fast ship" speed="3.65" length="0.31" shape="5330.71,642.30 5330.96,642.12"/>
    </edge>
    <edge id=":1366319965_6" function="internal">
        <lane id=":1366319965_6_0" index="0" disallow="tram rail_urban rail rail_electric rail_fast ship" speed="3.65" length="4.36" shape="5330.96,642.12 5331.88,641.45 5332.77,641.36 5333.38,642.02 5333.71,643.42"/>
    </edge>
    <edge id=":1366319967_0" function="internal">
        <lane id=":1366319967_0_0" index="0" disallow="tram rail_urban rail rail_electric rail_fast ship" speed="4.97" length="7.86" shape="5194.83,967.38 5194.47,964.33 5193.75,962.70 5192.66,962.51 5191.20,963.73"/>
    </edge>
    <edge id=":1366319967_1" function="internal">
        <lane id=":1366319967_1_0" index="0" disallow="tram rail_urban rail rail_electric rail_fast ship" speed="13.89" length="12.96" shape="5194.83,967.38 5193.71,963.54 5191.76,960.98 5190.36,958.52 5190.93,955.02"/>
        <lane id=":1366319967_1_1" index="1" disallow="tram rail_urban rail rail_electric rail_fast ship" speed="13.89" length="12.96" shape="5198.02,967.23 5196.92,963.82 5194.92,961.60 5193.43,959.47 5193.84,956.35"/>
    </edge>
    <edge id=":1366319967_3" function="internal">
        <lane id=":1366319967_3_0" index="0" disallow="tram rail_urban rail rail_electric rail_fast ship" speed="13.89" length="9.70" shape="5199.66,959.02 5197.93,961.09 5195.85,961.64 5193.56,962.06 5191.20,963.73"/>
        <lane id=":1366319967_3_1" index="1" disallow="tram rail_urban rail rail_electric rail_fast ship" speed="13.89" length="9.70" shape="5196.75,957.68 5195.12,959.54 5193.14,959.92 5190.96,960.18 5188.76,961.67"/>
    </edge>
    <edge id=":1366319967_5" function="internal">
        <lane id=":1366319967_5_0" index="0" disallow="tram rail_urban rail rail_electric rail_fast ship" speed="3.65" length="1.15" shape="5196.75,957.68 5195.77,958.29"/>
    </edge>
    <edge id=":1366319967_6" function="internal">
        <lane id=":1366319967_6_0" index="0" disallow="tram rail_urban rail rail_electric rail_fast ship" speed="3.65" length="3.53" shape="5195.77,958.29 5195.52,958.44 5194.63,958.47 5194.07,957.77 5193.84,956.35"/>
    </edge>
    <edge id=":1366319987_0" function="internal">
        <lane id=":1366319987_0_0" index="0" disallow="tram rail_urban rail rail_electric rail_fast ship" speed="13.89" length="0.48" shape="5271.74,818.39 5271.53,818.92"/>
        <lane id=":1366319987_0_1" index="1" disallow="tram rail_urban rail rail_electric rail_fast ship" speed="13.89" length="0.48" shape="5268.72,817.32 5268.58,817.70"/>
    </edge>
    <edge id=":1366319987_2" function="internal">
        <lane id=":1366319987_2_0" index="0" disallow="tram rail_urban rail rail_electric rail_fast ship" speed="13.89" length="0.16" shape="5262.66,815.25 5262.69,815.17"/>
        <lane id=":1366319987_2_1" index="1" disallow="tram rail_urban rail rail_electric rail_fast ship" speed="13.89" length="0.16" shape="5265.62,816.47 5265.71,816.25"/>
    </edge>
    <edge id=":1366319992_0" function="internal">