<?xml version="1.0" encoding="UTF-8"?>

<!-- generated on 2024-01-24 20:00:17 by Eclipse SUMO duarouter Version 1.14.1
<configuration xmlns:xsi="http://www.w3.org/2001/XMLSchema-instance" xsi:noNamespaceSchemaLocation="http://sumo.dlr.de/xsd/duarouterConfiguration.xsd">

    <input>
        <net-file value="testNodes.net.xml"/>
        <route-files value="trips.trips.xml"/>
    </input>

    <output>
        <output-file value="testNodes.rou.xml"/>
    </output>

    <report>
        <ignore-errors value="true"/>
    </report>

</configuration>
-->

<routes xmlns:xsi="http://www.w3.org/2001/XMLSchema-instance" xsi:noNamespaceSchemaLocation="http://sumo.dlr.de/xsd/routes_file.xsd">
    <vehicle id="1" depart="1.00">
        <route edges="476112161#0 476112161#1 175540480 587050475#0 587050475#1 661668431 476112208 476374559#0 476374559#1 639549065 74908479 795514703 649924884 476374560 795505751 630419697 445282961#0 445282961#1 22291132 476374561#0 476374561#1 33264343 655041207 655041206 1060003332 74769776 476377509 74553763 33264605 633245786 633245785 655151559 633245787 628515048 628515049 634102357 74553758 500367613 500367325 539638975 651989328#0 651989328#1 651989329 358645124 476380447 476380449 476380448 628723688 476380450#0 476380450#1 661664214 476380451 474929433 633284852 539379658 474929435 474929434 633192124 632914226 474928049 474928048 538260863 649803256 476381191 639725512 631879323#0 631879323#1 74671121 74769762 633276677 474928043 474928044 630866044 630866045 631722832 305935886 74553749 475116737 475116736 475116738 475116739 478881770 448937598 633397743 448937580 479079783 824407782 652149690 479079785 632203644 655504381 655504380 655504379 632203643 824411067 479080151 479080157 652150007 479083903 448937581 448937596 448937442 22325259 383365020 537989237 632203646 655063144 634184990 634184989 634794777 74676545 639347365 479079792 479079789 655137145 463995441 22293549 655137684 630854648 667699977 448937645#0 448937645#1 74953872 74553753 33264691#0 33264691#1 174886222 633846965 139670215 632230232 75097137 633809926 445716790 74671097 445716788#0 445716788#1 74769752 632562817 538260866 633299924 634526650 474928046 474928047 538270326 474929430 661664216 633149442 538761283#0 538761283#1 538761282 474929431 538761281 631844130 631844396 631844129 476753243 634085407 649405237 539638976 476753245 476753248#0 476753248#1 75516211 630855998 500368905 668255107 661665982 795505749 661665981 858457119 628487417 795505748 795505747 632497914 628487421#0 628487421#1 173961732 630419696#0 630419696#1 22292125 661668222 640287950 661668221 640287947 632512661 639549066 630419749#0 630419749#1 894149505 894149504 655655599 661668762 655655598 655655597 965108935 445282960 74484458 587050477#0 587050477#1 634817513 175540481 634817507 654859628 654859626 632569391 661669992 661669990 33794076 585706001 654870362 33794077 654870361 632561159 655143897 585646211#0 585646211#1 465461962 585646209#0 585646209#1 655141939 661670602 174886175 661670601 655141938 234371419 74553768 692181251 692181253#0 692181253#1 464289007 464289009 652012496 475907154 585703842#0 585703842#1 464289012 474660714 474660715 640251076 708802891 -22810638 -536913658 -536913659 -747299408 -536913664 -536913667 -728236698 -728236699 -536913668 -730123297 -536913672 746927170 474676253 478313239 536913687 536913682 -747299409 -536913685 -747060693 -652174552 -742756626 -652174551 -480288943 -822131989 -638460477 -536913688 -536913690 536913703 747060690 640219436 536913700 747065113 536913706 652296652 536913693 536913696 655653617 45065636 641071354 652572205 652572204 652572202 173166907 486025333 535665919 535665920 45065756 486025351 651106788 747882607 651106783#0 651106783#1 652152166 747882606 735054780 467414539 747882605 617923190 22698361 673494267 816753391 816753390 467731256 639856909 467731257#0 467731257#1 649368017 801503384 74685970#0 74685970#1 1075740308 655654574 474427034 673460194 673460196 474427035 630414222 474427037#0 474427037#1 22698756 22698751#0 22698751#1 673460192 761157096 474428336 174023709 474428337 585722578 74518787 474428338 131891595 538754961 633826997 474210631 474428339 474428340 474442486#0 474442486#1 464288956 74527435 474442491 474431399 474446518 474446519#0"/>
    </vehicle>
    <vehicle id="4" depart="4.00">
        <route edges="536913685 747299409 536913684 536913683 74729037 883233391 464289006 536913673 746927171 536913672 730123297 536913668 728236699 728236698 536913667 536913664 747299408 536913659 536913658 22810638 708802890 640193675 654998152 474660712 474660713 464981417#0 464981417#1 74680083 475134293 172065638 172065637#0 172065637#1 74914974 22291137#0 22291137#1 661670905 747402010 476109718 661670906 585646214 173166885"/>
    </vehicle>
    <vehicle id="6" depart="6.00">
        <route edges="139670215 632230232 75097137 633809926 445716790 74671097 445716788#0 445716788#1 74769752 632562817 538260866 633299924 634526650 474928046 474928047 538270326 474929430 661664216 633149442 538761283#0 538761283#1 538761282 474929431 538761281 631844130 631844396 631844129 476753243 634085407 649405237 539638976 476753245 476753248#0 476753248#1 75516211 630855998 500368905 668255107 661665982 795505749 661665981 858457119 628487417 795505748 795505747 632497914 628487421#0 628487421#1 173961732 630419696#0 630419696#1 22292125 661668222 640287950 661668221 640287947 632512661 639549066 630419749#0 630419749#1 894149505 894149504 655655599 661668762 655655598 655655597 965108935 445282960 74484458 587050477#0 587050477#1 634817513 175540481 634817507 654859628 654859626 632569391 661669992 661669990 33794076 585706001 654870362 33794077 654870361 632561159 655143897 585646211#0 585646211#1 465461962 585646209#0 585646209#1 655141939 661670602 174886175 661670601 655141938 234371419 74553768 692181251 692181253#0 692181253#1 464289007 464289009 652012496 475907154 585703842#0 585703842#1 464289012 474660714 474660715 640251076 708802891 -22810638 -536913658 -536913659 -747299408 -536913664 -536913667 -728236698 -728236699 -536913668 -730123297 -536913672 746927170 474676253 478313239 536913687 536913682 -747299409 -536913685 -747060693 -652174552 -742756626 -652174551 -480288943 -822131989 -638460477 -536913688 -536913690 536913703 747060690 640219436 536913700 747065113 536913706 652296652 536913693 536913696 655653617 45065636 641071354 652572205 652572204 652572202 173166907 486025333 535665919 535665920 45065756 486025351 651106788 747882607 651106783#0 651106783#1 652152166 747882606 735054780 467414539 747882605 617923190 22698361 673494267 816753391 816753390 467731256 639856909 467731257#0 467731257#1"/>
    </vehicle>
    <vehicle id="7" depart="7.00">
        <route edges="633809926 445716790 74671097 445716788#0 445716788#1 74769752 632562817 538260866 633299924 634526650 474928046 474928047 538270326 474929430 661664216 633149442 538761283#0 538761283#1 538761282 474929431 538761281 631844130 631844396 631844129 476753243 634085407 649405237 539638976 476753245 476753248#0 476753248#1 75516211 630855998 500368905 668255107 661665982 795505749 661665981 858457119 628487417 795505748 795505747 632497914 628487421#0 628487421#1 173961732 630419696#0 630419696#1 22292125 661668222 640287950 661668221 640287947 632512661 639549066 630419749#0 630419749#1 894149505 894149504 655655599 661668762 655655598 655655597 965108935 445282960 74484458 445282907 175540480 587050475#0 587050475#1 661668431 476112208 476374559#0 476374559#1 639549065 74908479 795514703 649924884 476374560 795505751 630419697 445282961#0 445282961#1 22291132 476374561#0 476374561#1 33264343 655041207 655041206 1060003332 74769776 476377509 74553763 33264605 633245786 633245785 655151559 633245787 628515048 628515049 634102357 74553758 500367613 500367325 539638975 651989328#0 651989328#1 651989329 358645124 476380447 476380449 476380448 628723688 476380450#0 476380450#1 661664214 476380451 474929433 633284852 539379658 474929435 474929434 633192124 632914226 474928049 474928048 538260863 649803256 476381191 639725512 631879323#0 631879323#1 74671121 74769762 633276677 474928043 474928044 630866044 630866045 631722832 305935886 74553749 475116737 475116736 475116738 475116739 478881770 448937598 633397743 448937580 479079783 824407782 652149690 479079785 632203644 655504381 655504380 655504379 632203643 824411067 479080151 479080157 652150007 479083903 448937581 448937596 448937648 22325257 758620616 479083904 758639271 479083905 758639272 479086369 464288935 174765849 758656577 479086374 632145655 479086383 630449514 630444439 479087197 464288936 478935404 617971399 74873568 630811192 478126342 478126343 478930899 633146417 175959569 632693639 537579062 655041844 537579061 475157996 633804506 173792008 34905411 829637629 829637628 445283015 34905412 475171828 475171829 631741562 649626423 533055058 533055059 630417422 74869294 475171825 475171826 628485342"/>
    </vehicle>
    <vehicle id="9" depart="9.00">
        <route edges="661648099 640008546 602479029#0 602479029#1 587050477#0 587050477#1 634817513 175540481 634817507 654859628 654859626 632569391 661669992 661669990 33794076 585706001 654870362 33794077 654870361 632561159 655143897 585646211#0 585646211#1 465461962 585646209#0 585646209#1 655141939 661670602 174886175 661670601 655141938 234371419 74553768 692181251 692181253#0 692181253#1 464289007 464289009 652012496 475907154 585703842#0 585703842#1 464289012 474660714 474660715 640251076 708802891 -22810638 -536913658 -536913659 -747299408 -536913664 -536913667 -728236698 -728236699 -536913668 -730123297 -536913672"/>
    </vehicle>
    <vehicle id="18" depart="18.00">
        <route edges="666827757 539415380 661062282 666827759 539415384 661062281 539415382 666827763 661062280 649775682 1108440803 539415391 632950645 539415387 475132221 475132222 155954288 747796381 475132223 23816952 632978629 75511727 665752323 475342015 665752322 632562097#0 632562097#1 75039127 655145244 655145243 634691897 634690651 634691896 475343498 666806812 465467899 770367113 74687494 475343499 473440857 552617011 655147259 473440858 655147258 479166329 479166330 479169486 479169488 176204437 630397574 473439152 223671420 445716699 647760900 74675108 74553773 632482225 792755656 477711619 630397198 21463643 630392535 477939945 795573350 795573351 636736093 306116898 636736606 22674809 800956703 477557468 74746294 477557471 632953499 632953495 477557470 633788296 74746298 639916004 661648099 640008546 602479029#0 602479029#1 445282907 175540480 587050475#0 587050475#1 661668431 476112208 476374559#0 476374559#1 639549065 74908479 795514703 649924884 476374560 795505751 630419697 445282961#0 445282961#1 22291132 476374561#0 476374561#1 33264343 655041207 655041206 1060003332 74769776 476377509 74553763 33264605 633245786 633245785 655151559 633245787 628515048 628515049 634102357 74553758 500367613 500367325 539638975 651989328#0 651989328#1 651989329 358645124 476380447 476380449 476380448 628723688 476380450#0 476380450#1 661664214 476380451 474929433 633284852 539379658 474929435 474929434 633192124 632914226 474928049 474928048 538260863 649803256 476381191 639725512 631879323#0 631879323#1 74671121 74769762 633276677 474928043 474928044 630866044 630866045 631722832 305935886 74553749 475116737 475116736 475116738 475116739 478881770 448937598 633397743 448937580 479079783 824407782 652149690 479079785 632203644 655504381 655504380 655504379 632203643 824411067 479080151 479080157 652150007 479083903 305935878 535604972 661645549 758612224 652278775 661645548 630180102 655065973 661628585 661628586 661628587 74553742 479754177 479754174 661628210 652292208 532990228 630179677#0 630179677#1 464288939 532977599 630412104 21560679 479125524 634772084 479125523 655494878 634788507 634788510 630163194 174765783 447712937 19780804 479124341 631932377#0 631932377#1 639302286 479124340 632506926"/>
    </vehicle>
    <vehicle id="19" depart="19.00">
        <route edges="722532426 473393258 736505031 22699682 538417615#0 538417615#1 639872756 633800167 22698750 821563445 649069256 980074179 633802797 639239080 483076077#0 483076077#1 726602325 174281633 585985519 464288955 585985522#0 585985522#1 661351281 744580202 744580203 74527434 661351280 661351279 661351278 661351277 635671567 538754960 661349656 661349659 651934107 131891597 131891598 542096116 74527424 800225985 800225983 800225984 649078302#0 649078302#1 585902010 74518780 761184181 464811634 638164497 761157095 761157094 74527426 585646225#0 585646225#1 22698755 585646226#0 585646226#1 630414221 22698333 696827370 633433734 646693373 646693374#0 646693374#1 801503385 585646223#0 585646223#1 74685968 847441947 398075703#0 398075703#1 470118588 821527756 654997378 465123975 465123976 713609829 661340996 661340995 654766089 391007728 821527757 821527758 45065755 831077926 654764094#0 654764094#1 467414540#0 467414540#1 651144350 1183837865 651144349 194761557 467414546 22698325 747809796 652169828 476752807 476752808 74729031 467689356 74518112 536913705 651916279 536913694 536913698 536913699 536913702 747060691 536913690 536913688 638460477 822131989 480288943 652174551 742756626 652174552 747060693 536913685 747299409 536913684 536913683 74729037 883233391 464289006 536913673 746927171 536913672 730123297 536913668 728236699 728236698 536913667 536913664 747299408 536913659 536913658 22810638 708802890 640193675 654998152 474660712 474660713 464981417#0 464981417#1 74680083 475134293 172065638 172065637#0 172065637#1 74914974 22291137#0 22291137#1 661670905 747402010 476109718 661670906 585646214 173166885 661670599 661670600 651980285 634806490 465461960#0 465461960#1 465461961 585646212#0 585646212#1 75512566 476112155 820408640 476112157 33793690 33793689 661669991 661669993 445282962 661669166 661669167 661669168 476112159 476112161#0 476112161#1 175540480 587050475#0 587050475#1 661668431 476112208 476374559#0 476374559#1 639549065 74908479 795514703 649924884 476374560 795505751 630419697 445282961#0 445282961#1 22291132 476374561#0 476374561#1 33264343 655041207 655041206 1060003332 74769776 476377509 74553763 33264605 633245786 633245785 655151559 633245787 628515048 628515049 634102357 74553758 500367613 500367325 539638975 651989328#0 651989328#1 651989329 358645124 476380447 476380449 476380448 628723688 476380450#0 476380450#1 661664214 476380451 474929433 633284852 539379658 474929435 474929434 633192124 632914226 474928049 474928048 538260863 649803256 476381191 639725512 631879323#0 631879323#1 74671121 74769762 633276677 474928043 474928044 630866044 630866045 631722832 305935886 74553749 475116737 475116736 475116738 475116739 478881770 448937598 633397743 448937580 479079783 824407782 652149690 479079785 632203644 655504381 655504380 655504379 632203643 824411067 479080151 479080157 652150007 479083903 448937581 448937596 448937442 22325259 383365020 537989237 632203646 655063144 634184990 634184989 634794777 74676545 639347365 479079792 479079789 655137145 463995441 22293549 655137684 630854648 667699977 448937645#0 448937645#1 74953872 74553753 33264691#0 33264691#1 174886222 633846965 139670215 632230232 75097137 633809926 445716790 74671097 445716788#0 445716788#1 74769752 632562817 538260866 633299924 634526650 474928046 474928047 538270326 474929430 661664216 633149442 538761283#0 538761283#1 538761282 474929431 538761281 631844130 631844396 631844129 476753243 634085407 649405237 539638976 476753245 476753248#0 476753248#1 75516211 630855998 500368905 668255107 661665982 795505749 661665981 858457119 628487417 795505748 795505747 632497914 628487421#0 628487421#1 173961732 630419696#0 630419696#1 22292125 661668222 640287950 661668221 640287947 632512661 639549066 630419749#0 630419749#1"/>
    </vehicle>
    <vehicle id="20" depart="20.00">
        <route edges="640008546 602479029#0 602479029#1 445282907 175540480 587050475#0 587050475#1 661668431 476112208 476374559#0 476374559#1 639549065 74908479 795514703 649924884 476374560 795505751 630419697 445282961#0 445282961#1 22291132 476374561#0 476374561#1 33264343 655041207 655041206 1060003332 74769776 476377509 74553763 33264605 633245786 633245785 655151559 633245787 628515048 628515049 634102357 74553758 500367613 500367325 539638975 651989328#0 651989328#1 651989329 358645124 476380447 476380449 476380448 628723688 476380450#0 476380450#1 661664214 476380451 474929433 633284852 539379658 474929435 474929434 633192124 632914226 474928049 474928048 538260863 649803256 476381191 639725512 631879323#0 631879323#1 74671121 74769762 633276677 474928043 474928044 630866044 630866045 631722832 305935886 74553749 475116737 475116736 475116738 475116739 478881770 448937598 633397743 448937580 479079783 824407782 652149690 479079785 632203644 655504381 655504380 655504379 632203643 824411067 479080151 479080157 652150007 479083903 305935878 535604972 661645549 758612224 652278775 661645548 630180102 655065973 661628585 661628586 661628587 74553742 479754177 479754174 661628210 652292208 532990228 630179677#0 630179677#1 464288939 532977599 630412104 21560679 479125524 634772084 479125523 655494878 634788507 634788510 630163194 174765783 447712937 19780804 479124341 631932377#0 631932377#1 639302286 479124340 632506926 631932376 632506925 633194212 630439712 633194211 630160530 630438313 650712398 174552467 630160856 174552465"/>
    </vehicle>
    <vehicle id="22" depart="22.00">
        <route edges="22325259 383365020 537989237 632203646 655063144 634184990 634184989 634794777 74676545 639347365 479079792 479079789 655137145 463995441 22293549 655137684 630854648 667699977 448937645#0 448937645#1 74953872 74553753 33264691#0 33264691#1 174886222 633846965 139670215 632230232 75097137 633809926 445716790 74671097 445716788#0 445716788#1 74769752 632562817 538260866 633299924 634526650 474928046 474928047 538270326 474929430 661664216 633149442 538761283#0 538761283#1 538761282 474929431 538761281 631844130 631844396 631844129 476753243 634085407 649405237 539638976 476753245 476753248#0 476753248#1 75516211 630855998 500368905 668255107 661665982 795505749 661665981 858457119 628487417 795505748 795505747 632497914 628487421#0 628487421#1 173961732 630419696#0 630419696#1 22292125 661668222 640287950 661668221 640287947 632512661 639549066 630419749#0 630419749#1 894149505 894149504 655655599 661668762 655655598 655655597 965108935 445282960 74484458 587050477#0 587050477#1 634817513 175540481 634817507 654859628 654859626 632569391 661669992 661669990 33794076 585706001 654870362 33794077 654870361 632561159 655143897 585646211#0 585646211#1 465461962 585646209#0 585646209#1 655141939 661670602 174886175 661670601 655141938 234371419 74553768 692181251 692181253#0 692181253#1 464289007 464289009 652012496 475907154 585703842#0 585703842#1 464289012 474660714 474660715 640251076 708802891 708802890 640193675 654998152 474660712 474660713"/>
    </vehicle>
    <vehicle id="23" depart="23.00">
        <route edges="234371419 74553768 692181251 692181253#0 692181253#1 464289007 464289009 652012496 475907154 585703842#0 585703842#1 464289012 474660714 474660715 640251076 708802891 708802890 640193675 654998152 474660712 474660713 464981417#0 464981417#1 74680083 475134293 172065638 172065637#0 172065637#1 74914974 22291137#0 22291137#1 661670905 747402010 476109718 661670906 585646214 173166885 661670599 661670600 651980285 634806490 465461960#0 465461960#1 465461961 585646212#0 585646212#1 75512566 476112155 820408640 476112157 33793690 33793689 661669991 661669993 445282962 661669166 661669167 661669168 476112159 476112161#0 476112161#1 175540480 587050475#0 587050475#1 661668431 476112208 476374559#0 476374559#1"/>
    </vehicle>
    <vehicle id="25" depart="25.00">
        <route edges="479754259 479754255 630180103 479754536 661645550 758612225 479754537 448937446 448937442 22325259 383365020 537989237 632203646 655063144 634184990 634184989 634794777 74676545 639347365 479079792 479079789 655137145 463995441 22293549 655137684 630854648 667699977 448937645#0 448937645#1 74953872 74553753 33264691#0 33264691#1 174886222 633846965 139670215 632230232 75097137 633809926 445716790 74671097 445716788#0 445716788#1 74769752 632562817 538260866 633299924 634526650 474928046 474928047 538270326 474929430 661664216 633149442 538761283#0 538761283#1 538761282 474929431 538761281 631844130 631844396 631844129 476753243 634085407 649405237 539638976 476753245 476753248#0 476753248#1 75516211 630855998 500368905 668255107 661665982 795505749 661665981 858457119 628487417 795505748 795505747 632497914 628487421#0 628487421#1 173961732 630419696#0 630419696#1 22292125 661668222 640287950 661668221 640287947 632512661 639549066 630419749#0 630419749#1 894149505 894149504 655655599 661668762 655655598 655655597 443122391 534981970 74553771 661648096 639916002 661648103 655658863 74746296 632920983 655144779 655144778 477574135 655504834 636737164 651980631 74746295 447713250 22718616 173779734 447712957 74481732 476429330 477958806 477951174 587048092 21462998 792764586 476431846 650030028 792764585 74675111 792764584 473439150 223671419 74553776 630397573 539413297 633268070 641561194 473439151#0 473439151#1 479615164 479615165 826116981 473440853 726600900 826116980 473440854 552617008 473440852 473440856 632474268 473440855 74522411 655146645 632474841 655146644#0 655146644#1 630388109 74687493 585646221#0 585646221#1 74506892 539415381 632969492 666827754 666827757 539415380 661062282 666827759 539415384 661062281 539415382 666827763 661062280 649775682 1108440803 539415391 632950645 539415387 475132221 475132222 155954288 747796381 475132223 23816952 632978629 75511727 665752323 475342015 665752322 632562097#0 632562097#1 75039127 655145244 655145243 634691897 634690651 634691896 475343498 666806812 465467899 770367113 74687494 475343499 473440857 552617011 655147259 473440858"/>
    </vehicle>
    <vehicle id="27" depart="27.00">
        <route edges="633802797 639239080 483076077#0 483076077#1 726602325 174281633 585985519 464288955 585985522#0 585985522#1 661351281 744580202 744580203 74527434 661351280 661351279 661351278 661351277 635671567 538754960 661349656 661349659 651934107 131891597 131891598 542096116 74527424 800225985 800225983 800225984 649078302#0 649078302#1 585902010 74518780 761184181 464811634 638164497 761157095 761157094 74527426 585646225#0 585646225#1 22698755 585646226#0 585646226#1 630414221 22698333 696827370 633433734 646693373 646693374#0 646693374#1 801503385 585646223#0 585646223#1 74685968 847441947 398075703#0 398075703#1 470118588 821527756 654997378 465123975 465123976 713609829 661340996 661340995 654766089 391007728 821527757 821527758 45065755 831077926 654764094#0 654764094#1 467414540#0 467414540#1 651144350 1183837865 651144349 194761557 467414546 22698325 747809796 652169828 476752807 476752808 74729031 467689356 74518112 536913705 651916279 536913694 536913698 536913699 536913702 747060691 536913690 536913688 638460477 822131989 480288943 652174551 742756626 652174552 747060693 536913685 747299409 536913684 536913683 74729037 883233391 464289006 536913673 746927171 536913672 730123297 536913668 728236699 728236698 536913667 536913664 747299408 536913659 536913658 22810638 708802890 640193675 654998152 474660712 474660713 464981417#0 464981417#1 74680083 475134293 172065638 172065637#0 172065637#1 74914974 22291137#0 22291137#1 661670905 747402010 476109718 661670906 585646214 173166885 661670599 661670600 651980285 634806490 465461960#0 465461960#1 465461961 585646212#0 585646212#1 75512566 476112155 820408640 476112157 33793690 33793689 661669991 661669993 445282962 661669166 661669167 661669168 476112159 476112161#0 476112161#1 175540480 587050475#0 587050475#1 661668431 476112208 476374559#0 476374559#1 639549065 74908479 795514703 649924884 476374560 795505751 630419697 445282961#0 445282961#1 22291132 476374561#0 476374561#1 33264343 655041207 655041206 1060003332 74769776 476377509 74553763 33264605 633245786 633245785 655151559 633245787 628515048 628515049 634102357 74553758 500367613 500367325 539638975 651989328#0 651989328#1 651989329 358645124 476380447 476380449 476380448 628723688 476380450#0 476380450#1 661664214 476380451 474929433 633284852 539379658 474929435 474929434 633192124 632914226 474928049 474928048 538260863 649803256 476381191 639725512 631879323#0 631879323#1 74671121 74769762 633276677 474928043 474928044 630866044 630866045 631722832 305935886 74553749 475116737 475116736 475116738 475116739 478881770 448937598 633397743 448937580 479079783 824407782 652149690 479079785 632203644"/>
    </vehicle>
    <vehicle id="28" depart="28.00">
        <route edges="45065755 831077926 654764094#0 654764094#1 467414540#0 467414540#1 651144350 1183837865 651144349 194761557 467414546 22698325 747809796 652169828 476752807 476752808 74729031 467689356 74518112 536913705 651916279 536913694 536913698 536913699 536913702 747060691 536913703 747060690 640219436 536913700 747065113 536913706 652296652 536913693 536913696 655653617 45065636 641071354 652572205 652572204 652572202 173166907 486025333 535665919 535665920 45065756 486025351 651106788"/>
    </vehicle>
    <vehicle id="30" depart="30.00">
        <route edges="829637627 34905414 829637626 34905413 175540499 475158000 537579060 638256779 475158907 633197069 475158910#0 475158910#1 652145239 633197070 475159368 475159371 475159374 539671030 175959568 649101693 475160445 478878325 630829769 632123139 632123135 74873567 633569463 632124902#0 632124902#1 475162280 475162281 464288933 466739184 630446800 22325258 479083906 475163615 475163616 475163617 325024345 22325259 383365020 537989237 632203646 655063144 634184990 634184989 634794777 74676545 639347365 479079792 479079789 655137145 463995441 22293549 655137684 630854648 667699977 448937645#0 448937645#1 74953872 74553753 33264691#0 33264691#1 174886222 633846965 139670215 632230232 75097137 633809926 445716790 74671097 445716788#0 445716788#1 74769752 632562817 538260866 633299924 634526650 474928046 474928047 538270326 474929430 661664216 633149442 538761283#0 538761283#1 538761282 474929431 538761281 631844130 631844396 631844129 476753243 634085407 649405237 539638976 476753245 476753248#0 476753248#1 75516211 630855998 500368905 668255107 661665982 795505749 661665981 858457119 628487417 795505748 795505747 632497914 628487421#0 628487421#1 173961732 630419696#0 630419696#1 22292125 661668222 640287950 661668221 640287947 632512661 639549066 630419749#0 630419749#1 894149505 894149504 655655599 661668762 655655598 655655597 965108935 445282960 74484458 445282907 175540480 587050475#0 587050475#1 661668431 476112208 476374559#0 476374559#1 639549065 74908479 795514703 649924884 476374560 795505751 630419697 445282961#0 445282961#1 22291132 476374561#0 476374561#1 33264343 655041207 655041206 1060003332 74769776 476377509 74553763 33264605 633245786"/>
    </vehicle>
    <vehicle id="32" depart="32.00">