<?xml version="1.0" encoding="UTF-8"?>

<!-- generated on 2024-08-02 12:10:27.380559 by randomtrips.py v1_14_1+0000-f654d7b963e
<configuration>
    <end value="3000"/>
    <insertion-density value="90.0"/>
    <net-file value="scenario3/sumo/ring.net.xml"/>
    <route-file value="scenario3/sumo/traffic90.rou.xml"/>
</configuration>
-->

<routes xmlns:xsi="http://www.w3.org/2001/XMLSchema-instance" xsi:noNamespaceSchemaLocation="http://sumo.dlr.de/xsd/routes_file.xsd">
    <trip id="0" depart="0.00" from="E0" to="0"/>
    <trip id="1" depart="1.39" from="7" to="5"/>
    <trip id="2" depart="2.78" from="E2" to="E10"/>
    <trip id="3" depart="4.18" from="E6" to="10"/>
    <trip id="4" depart="5.57" from="C2" to="1"/>
    <trip id="5" depart="6.96" from="5" to="C5"/>
    <trip id="6" depart="8.35" from="0" to="4"/>
    <trip id="7" depart="9.74" from="E1" to="C6"/>
    <trip id="8" depart="11.13" from="5" to="C8"/>
    <trip id="9" depart="12.53" from="E3" to="0"/>
    <trip id="10" depart="13.92" from="E3" to="E10"/>
    <trip id="11" depart="15.31" from="9" to="3"/>
    <trip id="12" depart="16.70" from="E8" to="9"/>
    <trip id="13" depart="18.09" from="11" to="11"/>
    <trip id="14" depart="19.49" from="E4" to="C8"/>
    <trip id="15" depart="20.88" from="E3" to="E11"/>
    <trip id="16" depart="22.27" from="C6" to="E8"/>
    <trip id="17" depart="23.66" from="C0" to="C6"/>
    <trip id="18" depart="25.05" from="E4" to="E0"/>
    <trip id="19" depart="26.45" from="E5" to="C7"/>
    <trip id="20" depart="27.84" from="E12" to="1"/>
    <trip id="21" depart="29.23" from="5" to="7"/>
    <trip id="22" depart="30.62" from="10" to="5"/>
    <trip id="23" depart="32.01" from="11" to="7"/>
    <trip id="24" depart="33.40" from="E0" to="C0"/>
    <trip id="25" depart="34.80" from="C0" to="5"/>
    <trip id="26" depart="36.19" from="7" to="E6"/>
    <trip id="27" depart="37.58" from="E1" to="C8"/>
    <trip id="28" depart="38.97" from="3" to="E11"/>
    <trip id="29" depart="40.36" from="3" to="C0"/>
    <trip id="30" depart="41.76" from="E9" to="E0"/>
    <trip id="31" depart="43.15" from="C6" to="E10"/>
    <trip id="32" depart="44.54" from="E4" to="E2"/>
    <trip id="33" depart="45.93" from="5" to="1"/>
    <trip id="34" depart="47.32" from="8" to="7"/>
    <trip id="35" depart="48.71" from="5" to="E7"/>
    <trip id="36" depart="50.11" from="E5" to="8"/>
    <trip id="37" depart="51.50" from="E1" to="C1"/>
    <trip id="38" depart="52.89" from="E7" to="C3"/>
    <trip id="39" depart="54.28" from="7" to="6"/>
    <trip id="40" depart="55.67" from="C7" to="6"/>
    <trip id="41" depart="57.07" from="C7" to="E5"/>
    <trip id="42" depart="58.46" from="C1" to="5"/>
    <trip id="43" depart="59.85" from="E9" to="C5"/>
    <trip id="44" depart="61.24" from="11" to="1"/>
    <trip id="45" depart="62.63" from="11" to="E0"/>
    <trip id="46" depart="64.03" from="E24" to="C2"/>
    <trip id="47" depart="65.42" from="10" to="C0"/>
    <trip id="48" depart="66.81" from="E9" to="C5"/>
    <trip id="49" depart="68.20" from="E9" to="E4"/>
    <trip id="50" depart="69.59" from="0" to="E11"/>
    <trip id="51" depart="70.98" from="E12" to="C6"/>
    <trip id="52" depart="72.38" from="7" to="E0"/>
    <trip id="53" depart="73.77" from="11" to="C2"/>
    <trip id="54" depart="75.16" from="C3" to="E7"/>
    <trip id="55" depart="76.55" from="E5" to="6"/>
    <trip id="56" depart="77.94" from="C5" to="4"/>
    <trip id="57" depart="79.34" from="E7" to="E4"/>
    <trip id="58" depart="80.73" from="8" to="E0"/>
    <trip id="59" depart="82.12" from="C8" to="3"/>
    <trip id="60" depart="83.51" from="E2" to="C6"/>
    <trip id="61" depart="84.90" from="E24" to="C6"/>
    <trip id="62" depart="86.29" from="0" to="9"/>
    <trip id="63" depart="87.69" from="0" to="E6"/>
    <trip id="64" depart="89.08" from="E5" to="E3"/>
    <trip id="65" depart="90.47" from="8" to="1"/>
    <trip id="66" depart="91.86" from="E5" to="E7"/>
    <trip id="67" depart="93.25" from="10" to="C4"/>
    <trip id="68" depart="94.65" from="10" to="E14"/>
    <trip id="69" depart="96.04" from="E24" to="2"/>
    <trip id="70" depart="97.43" from="C4" to="C6"/>
    <trip id="71" depart="98.82" from="7" to="E4"/>
    <trip id="72" depart="100.21" from="C2" to="5"/>
    <trip id="73" depart="101.61" from="C6" to="E11"/>
    <trip id="74" depart="103.00" from="4" to="8"/>
    <trip id="75" depart="104.39" from="E9" to="E1"/>
    <trip id="76" depart="105.78" from="C2" to="C5"/>
    <trip id="77" depart="107.17" from="2" to="5"/>
    <trip id="78" depart="108.56" from="9" to="C8"/>
    <trip id="79" depart="109.96" from="5" to="5"/>
    <trip id="80" depart="111.35" from="10" to="E0"/>
    <trip id="81" depart="112.74" from="5" to="E5"/>
    <trip id="82" depart="114.13" from="E5" to="10"/>
    <trip id="83" depart="115.52" from="6" to="E1"/>
    <trip id="84" depart="116.92" from="5" to="2"/>
    <trip id="85" depart="118.31" from="E7" to="C7"/>
    <trip id="86" depart="119.70" from="C4" to="E2"/>
    <trip id="87" depart="121.09" from="E3" to="4"/>
    <trip id="88" depart="122.48" from="11" to="C2"/>
    <trip id="89" depart="123.87" from="C2" to="C3"/>
    <trip id="90" depart="125.27" from="E13" to="E1"/>
    <trip id="91" depart="126.66" from="E9" to="11"/>
    <trip id="92" depart="128.05" from="C1" to="9"/>
    <trip id="93" depart="129.44" from="E5" to="6"/>
    <trip id="94" depart="130.83" from="4" to="C3"/>
    <trip id="95" depart="132.23" from="C2" to="7"/>
    <trip id="96" depart="133.62" from="6" to="E6"/>
    <trip id="97" depart="135.01" from="C3" to="E4"/>
    <trip id="98" depart="136.40" from="C6" to="1"/>
    <trip id="99" depart="137.79" from="E9" to="E3"/>
    <trip id="100" depart="139.19" from="E8" to="E6"/>
    <trip id="101" depart="140.58" from="E4" to="3"/>
    <trip id="102" depart="141.97" from="C4" to="5"/>
    <trip id="103" depart="143.36" from="C1" to="1"/>
    <trip id="104" depart="144.75" from="C0" to="E8"/>
    <trip id="105" depart="146.14" from="7" to="E2"/>
    <trip id="106" depart="147.54" from="C3" to="C2"/>
    <trip id="107" depart="148.93" from="E8" to="E8"/>
    <trip id="108" depart="150.32" from="C6" to="E11"/>
    <trip id="109" depart="151.71" from="3" to="8"/>
    <trip id="110" depart="153.10" from="E8" to="C7"/>
    <trip id="111" depart="154.50" from="C6" to="E14"/>
    <trip id="112" depart="155.89" from="1" to="C7"/>
    <trip id="113" depart="157.28" from="C5" to="E3"/>
    <trip id="114" depart="158.67" from="3" to="E7"/>
    <trip id="115" depart="160.06" from="10" to="4"/>
    <trip id="116" depart="161.45" from="C8" to="E1"/>
    <trip id="117" depart="162.85" from="5" to="2"/>
    <trip id="118" depart="164.24" from="E6" to="6"/>
    <trip id="119" depart="165.63" from="C8" to="E0"/>
    <trip id="120" depart="167.02" from="C2" to="C7"/>
    <trip id="121" depart="168.41" from="C5" to="E6"/>
    <trip id="122" depart="169.81" from="4" to="E11"/>
    <trip id="123" depart="171.20" from="6" to="C1"/>
    <trip id="124" depart="172.59" from="E1" to="8"/>
    <trip id="125" depart="173.98" from="8" to="E14"/>
    <trip id="126" depart="175.37" from="10" to="C3"/>
    <trip id="127" depart="176.77" from="E9" to="E8"/>
    <trip id="128" depart="178.16" from="10" to="5"/>
    <trip id="129" depart="179.55" from="7" to="E6"/>
    <trip id="130" depart="180.94" from="E5" to="E4"/>
    <trip id="131" depart="182.33" from="C0" to="3"/>
    <trip id="132" depart="183.72" from="E4" to="E10"/>
    <trip id="133" depart="185.12" from="C8" to="E8"/>
    <trip id="134" depart="186.51" from="E1" to="0"/>
    <trip id="135" depart="187.90" from="E3" to="8"/>
    <trip id="136" depart="189.29" from="E1" to="E6"/>
    <trip id="137" depart="190.68" from="2" to="11"/>
    <trip id="138" depart="192.08" from="11" to="C6"/>
    <trip id="139" depart="193.47" from="7" to="C8"/>
    <trip id="140" depart="194.86" from="E13" to="4"/>
    <trip id="141" depart="196.25" from="E0" to="6"/>
    <trip id="142" depart="197.64" from="C4" to="E5"/>
    <trip id="143" depart="199.03" from="E4" to="11"/>
    <trip id="144" depart="200.43" from="C2" to="7"/>
    <trip id="145" depart="201.82" from="0" to="E2"/>
    <trip id="146" depart="203.21" from="E0" to="6"/>
    <trip id="147" depart="204.60" from="E2" to="C6"/>
    <trip id="148" depart="205.99" from="C2" to="0"/>
    <trip id="149" depart="207.39" from="10" to="E5"/>
    <trip id="150" depart="208.78" from="E6" to="C6"/>
    <trip id="151" depart="210.17" from="E4" to="C7"/>
    <trip id="152" depart="211.56" from="3" to="2"/>
    <trip id="153" depart="212.95" from="8" to="E5"/>
    <trip id="154" depart="214.34" from="E3" to="E4"/>
    <trip id="155" depart="215.74" from="E6" to="5"/>
    <trip id="156" depart="217.13" from="6" to="11"/>
    <trip id="157" depart="218.52" from="E24" to="E5"/>
    <trip id="158" depart="219.91" from="C1" to="E0"/>
    <trip id="159" depart="221.30" from="3" to="E6"/>
    <trip id="160" depart="222.70" from="E5" to="E8"/>
    <trip id="161" depart="224.09" from="E3" to="E4"/>
    <trip id="162" depart="225.48" from="0" to="E14"/>
    <trip id="163" depart="226.87" from="9" to="E6"/>
    <trip id="164" depart="228.26" from="E3" to="E4"/>
    <trip id="165" depart="229.66" from="E3" to="7"/>
    <trip id="166" depart="231.05" from="E24" to="11"/>
    <trip id="167" depart="232.44" from="E5" to="E4"/>
    <trip id="168" depart="233.83" from="5" to="E25"/>
    <trip id="169" depart="235.22" from="C3" to="8"/>
    <trip id="170" depart="236.61" from="E3" to="5"/>
    <trip id="171" depart="238.01" from="0" to="4"/>
    <trip id="172" depart="239.40" from="9" to="E4"/>
    <trip id="173" depart="240.79" from="E8" to="7"/>
    <trip id="174" depart="242.18" from="E0" to="C1"/>
    <trip id="175" depart="243.57" from="E9" to="C6"/>
    <trip id="176" depart="244.97" from="E7" to="11"/>
    <trip id="177" depart="246.36" from="E8" to="4"/>
    <trip id="178" depart="247.75" from="E8" to="7"/>
    <trip id="179" depart="249.14" from="11" to="C2"/>
    <trip id="180" depart="250.53" from="E13" to="8"/>
    <trip id="181" depart="251.92" from="C8" to="C5"/>
    <trip id="182" depart="253.32" from="C1" to="C7"/>
    <trip id="183" depart="254.71" from="6" to="E11"/>
    <trip id="184" depart="256.10" from="0" to="E6"/>
    <trip id="185" depart="257.49" from="C6" to="E11"/>
    <trip id="186" depart="258.88" from="E2" to="E1"/>
    <trip id="187" depart="260.28" from="C0" to="10"/>
    <trip id="188" depart="261.67" from="E1" to="9"/>
    <trip id="189" depart="263.06" from="8" to="E3"/>
    <trip id="190" depart="264.45" from="E13" to="8"/>
    <trip id="191" depart="265.84" from="8" to="C1"/>
    <trip id="192" depart="267.24" from="C1" to="8"/>
    <trip id="193" depart="268.63" from="2" to="C2"/>
    <trip id="194" depart="270.02" from="E7" to="E10"/>
    <trip id="195" depart="271.41" from="E6" to="C8"/>
    <trip id="196" depart="272.80" from="8" to="C6"/>
    <trip id="197" depart="274.19" from="0" to="7"/>
    <trip id="198" depart="275.59" from="C2" to="C7"/>
    <trip id="199" depart="276.98" from="E1" to="C3"/>
    <trip id="200" depart="278.37" from="C3" to="5"/>
    <trip id="201" depart="279.76" from="C4" to="E5"/>
    <trip id="202" depart="281.15" from="E3" to="3"/>
    <trip id="203" depart="282.55" from="10" to="C5"/>
    <trip id="204" depart="283.94" from="E0" to="9"/>
    <trip id="205" depart="285.33" from="E3" to="E14"/>
    <trip id="206" depart="286.72" from="E1" to="5"/>
    <trip id="207" depart="288.11" from="4" to="0"/>
    <trip id="208" depart="289.50" from="6" to="C4"/>
    <trip id="209" depart="290.90" from="E4" to="10"/>
    <trip id="210" depart="292.29" from="C2" to="E0"/>
    <trip id="211" depart="293.68" from="4" to="E10"/>
    <trip id="212" depart="295.07" from="C4" to="6"/>
    <trip id="213" depart="296.46" from="E1" to="0"/>
    <trip id="214" depart="297.86" from="E2" to="E2"/>
    <trip id="215" depart="299.25" from="11" to="C2"/>
    <trip id="216" depart="300.64" from="3" to="E7"/>
    <trip id="217" depart="302.03" from="C5" to="1"/>
    <trip id="218" depart="303.42" from="6" to="E3"/>
    <trip id="219" depart="304.82" from="C3" to="E25"/>
    <trip id="220" depart="306.21" from="E1" to="E8"/>
    <trip id="221" depart="307.60" from="C8" to="E7"/>
    <trip id="222" depart="308.99" from="E6" to="C8"/>
    <trip id="223" depart="310.38" from="E13" to="C5"/>
    <trip id="224" depart="311.77" from="E4" to="C6"/>
    <trip id="225" depart="313.17" from="E6" to="E14"/>
    <trip id="226" depart="314.56" from="C4" to="6"/>
    <trip id="227" depart="315.95" from="6" to="E0"/>
    <trip id="228" depart="317.34" from="E24" to="C5"/>
    <trip id="229" depart="318.73" from="E0" to="7"/>
    <trip id="230" depart="320.13" from="10" to="7"/>
    <trip id="231" depart="321.52" from="7" to="8"/>
    <trip id="232" depart="322.91" from="C6" to="2"/>
    <trip id="233" depart="324.30" from="5" to="E10"/>
    <trip id="234" depart="325.69" from="E13" to="10"/>
    <trip id="235" depart="327.08" from="C1" to="C6"/>
    <trip id="236" depart="328.48" from="C2" to="5"/>
    <trip id="237" depart="329.87" from="C2" to="E5"/>
    <trip id="238" depart="331.26" from="C7" to="E10"/>
    <trip id="239" depart="332.65" from="E5" to="E2"/>
    <trip id="240" depart="334.04" from="C0" to="0"/>
    <trip id="241" depart="335.44" from="9" to="E14"/>
    <trip id="242" depart="336.83" from="E5" to="E7"/>
    <trip id="243" depart="338.22" from="C2" to="E14"/>
    <trip id="244" depart="339.61" from="C6" to="C8"/>
    <trip id="245" depart="341.00" from="5" to="5"/>
    <trip id="246" depart="342.40" from="C2" to="0"/>
    <trip id="247" depart="343.79" from="9" to="E10"/>
    <trip id="248" depart="345.18" from="C1" to="3"/>
    <trip id="249" depart="346.57" from="C3" to="2"/>
    <trip id="250" depart="347.96" from="E0" to="0"/>
    <trip id="251" depart="349.35" from="C1" to="C7"/>
    <trip id="252" depart="350.75" from="0" to="E0"/>
    <trip id="253" depart="352.14" from="2" to="C3"/>
    <trip id="254" depart="353.53" from="1" to="C0"/>
    <trip id="255" depart="354.92" from="5" to="9"/>
    <trip id="256" depart="356.31" from="E2" to="C0"/>
    <trip id="257" depart="357.71" from="E2" to="E3"/>
    <trip id="258" depart="359.10" from="6" to="10"/>
    <trip id="259" depart="360.49" from="0" to="C6"/>
    <trip id="260" depart="361.88" from="E9" to="9"/>
    <trip id="261" depart="363.27" from="E1" to="E2"/>
    <trip id="262" depart="364.66" from="E1" to="E14"/>
    <trip id="263" depart="366.06" from="E8" to="4"/>
    <trip id="264" depart="367.45" from="0" to="3"/>
    <trip id="265" depart="368.84" from="2" to="E1"/>
    <trip id="266" depart="370.23" from="C7" to="5"/>
    <trip id="267" depart="371.62" from="E12" to="E2"/>
    <trip id="268" depart="373.02" from="3" to="C8"/>
    <trip id="269" depart="374.41" from="E2" to="11"/>
    <trip id="270" depart="375.80" from="E3" to="E7"/>
    <trip id="271" depart="377.19" from="11" to="0"/>
    <trip id="272" depart="378.58" from="8" to="E10"/>
    <trip id="273" depart="379.98" from="E8" to="C1"/>
    <trip id="274" depart="381.37" from="E13" to="10"/>
    <trip id="275" depart="382.76" from="E12" to="E0"/>
    <trip id="276" depart="384.15" from="11" to="E2"/>
    <trip id="277" depart="385.54" from="E4" to="C8"/>
    <trip id="278" depart="386.93" from="2" to="E8"/>
    <trip id="279" depart="388.33" from="E24" to="9"/>
    <trip id="280" depart="389.72" from="C2" to="C0"/>
    <trip id="281" depart="391.11" from="C5" to="9"/>
    <trip id="282" depart="392.50" from="E4" to="E25"/>
    <trip id="283" depart="393.89" from="11" to="E7"/>
    <trip id="284" depart="395.29" from="E0" to="E3"/>
    <trip id="285" depart="396.68" from="E13" to="C2"/>
    <trip id="286" depart="398.07" from="E13" to="E7"/>
    <trip id="287" depart="399.46" from="7" to="E25"/>
    <trip id="288" depart="400.85" from="C6" to="C4"/>
    <trip id="289" depart="402.24" from="C2" to="E11"/>
    <trip id="290" depart="403.64" from="7" to="E3"/>
    <trip id="291" depart="405.03" from="E4" to="10"/>
    <trip id="292" depart="406.42" from="E5" to="6"/>
    <trip id="293" depart="407.81" from="C3" to="C8"/>
    <trip id="294" depart="409.20" from="C0" to="0"/>
    <trip id="295" depart="410.60" from="E4" to="4"/>
    <trip id="296" depart="411.99" from="5" to="E25"/>
    <trip id="297" depart="413.38" from="9" to="E4"/>
    <trip id="298" depart="414.77" from="E12" to="7"/>
    <trip id="299" depart="416.16" from="0" to="E7"/>
    <trip id="300" depart="417.56" from="10" to="E11"/>
    <trip id="301" depart="418.95" from="C4" to="E14"/>
    <trip id="302" depart="420.34" from="E12" to="E0"/>
    <trip id="303" depart="421.73" from="C4" to="E2"/>
    <trip id="304" depart="423.12" from="11" to="5"/>
    <trip id="305" depart="424.51" from="E12" to="8"/>
    <trip id="306" depart="425.91" from="C7" to="C4"/>
    <trip id="307" depart="427.30" from="C6" to="C2"/>
    <trip id="308" depart="428.69" from="E2" to="9"/>
    <trip id="309" depart="430.08" from="E12" to="7"/>
    <trip id="310" depart="431.47" from="6" to="2"/>
    <trip id="311" depart="432.87" from="4" to="2"/>
    <trip id="312" depart="434.26" from="C6" to="E14"/>
    <trip id="313" depart="435.65" from="4" to="5"/>
    <trip id="314" depart="437.04" from="C4" to="E11"/>
    <trip id="315" depart="438.43" from="E9" to="C5"/>
    <trip id="316" depart="439.82" from="7" to="11"/>
    <trip id="317" depart="441.22" from="4" to="5"/>
    <trip id="318" depart="442.61" from="4" to="0"/>
    <trip id="319" depart="444.00" from="C6" to="7"/>
    <trip id="320" depart="445.39" from="E9" to="C6"/>
    <trip id="321" depart="446.78" from="E12" to="2"/>
    <trip id="322" depart="448.18" from="E5" to="C4"/>
    <trip id="323" depart="449.57" from="E5" to="C7"/>
    <trip id="324" depart="450.96" from="C3" to="C2"/>
    <trip id="325" depart="452.35" from="4" to="1"/>
    <trip id="326" depart="453.74" from="E7" to="C4"/>
    <trip id="327" depart="455.14" from="E3" to="C1"/>
    <trip id="328" depart="456.53" from="10" to="E0"/>
    <trip id="329" depart="457.92" from="1" to="3"/>
    <trip id="330" depart="459.31" from="C7" to="8"/>
    <trip id="331" depart="460.70" from="E9" to="2"/>
    <trip id="332" depart="462.09" from="E2" to="C8"/>
    <trip id="333" depart="463.49" from="E24" to="5"/>
    <trip id="334" depart="464.88" from="C5" to="C3"/>
    <trip id="335" depart="466.27" from="C3" to="E4"/>
    <trip id="336" depart="467.66" from="E9" to="8"/>
    <trip id="337" depart="469.05" from="E0" to="C8"/>
    <trip id="338" depart="470.45" from="E2" to="E7"/>
    <trip id="339" depart="471.84" from="5" to="5"/>
    <trip id="340" depart="473.23" from="E1" to="3"/>
    <trip id="341" depart="474.62" from="3" to="10"/>
    <trip id="342" depart="476.01" from="0" to="C3"/>
    <trip id="343" depart="477.40" from="C8" to="7"/>
    <trip id="344" depart="478.80" from="5" to="E11"/>
    <trip id="345" depart="480.19" from="E12" to="C3"/>
    <trip id="346" depart="481.58" from="E12" to="E6"/>
    <trip id="347" depart="482.97" from="E24" to="E0"/>
    <trip id="348" depart="484.36" from="E1" to="E6"/>
    <trip id="349" depart="485.76" from="C2" to="C6"/>
    <trip id="350" depart="487.15" from="E1" to="E5"/>
    <trip id="351" depart="488.54" from="E4" to="10"/>
    <trip id="352" depart="489.93" from="3" to="8"/>
    <trip id="353" depart="491.32" from="E2" to="C7"/>
    <trip id="354" depart="492.72" from="7" to="2"/>
    <trip id="355" depart="494.11" from="E12" to="E10"/>
    <trip id="356" depart="495.50" from="E8" to="C5"/>
    <trip id="357" depart="496.89" from="C4" to="10"/>
    <trip id="358" depart="498.28" from="1" to="C2"/>
    <trip id="359" depart="499.67" from="8" to="6"/>
    <trip id="360" depart="501.07" from="11" to="E7"/>
    <trip id="361" depart="502.46" from="E4" to="C7"/>
    <trip id="362" depart="503.85" from="E8" to="E8"/>
    <trip id="363" depart="505.24" from="E1" to="7"/>
    <trip id="364" depart="506.63" from="1" to="E14"/>
    <trip id="365" depart="508.03" from="C3" to="E1"/>
    <trip id="366" depart="509.42" from="E7" to="4"/>
    <trip id="367" depart="510.81" from="C7" to="E0"/>
    <trip id="368" depart="512.20" from="C4" to="11"/>
    <trip id="369" depart="513.59" from="9" to="9"/>
    <trip id="370" depart="514.98" from="E1" to="E4"/>
    <trip id="371" depart="516.38" from="9" to="E10"/>
    <trip id="372" depart="517.77" from="7" to="E7"/>
    <trip id="373" depart="519.16" from="E3" to="C6"/>
    <trip id="374" depart="520.55" from="C3" to="8"/>
    <trip id="375" depart="521.94" from="8" to="E7"/>
    <trip id="376" depart="523.34" from="C1" to="C5"/>
    <trip id="377" depart="524.73" from="E9" to="E1"/>
    <trip id="378" depart="526.12" from="C6" to="C2"/>
    <trip id="379" depart="527.51" from="4" to="C0"/>
    <trip id="380" depart="528.90" from="E2" to="E0"/>
    <trip id="381" depart="530.30" from="E2" to="4"/>
    <trip id="382" depart="531.69" from="C6" to="E6"/>
    <trip id="383" depart="533.08" from="C2" to="E10"/>
    <trip id="384" depart="534.47" from="2" to="E8"/>
    <trip id="385" depart="535.86" from="C8" to="6"/>
    <trip id="386" depart="537.25" from="3" to="C6"/>
    <trip id="387" depart="538.65" from="C6" to="11"/>
    <trip id="388" depart="540.04" from="E9" to="E6"/>
    <trip id="389" depart="541.43" from="C3" to="11"/>
    <trip id="390" depart="542.82" from="E4" to="C4"/>
    <trip id="391" depart="544.21" from="E13" to="C5"/>
    <trip id="392" depart="545.61" from="7" to="E3"/>
    <trip id="393" depart="547.00" from="E9" to="6"/>
    <trip id="394" depart="548.39" from="C6" to="C1"/>
    <trip id="395" depart="549.78" from="E7" to="C5"/>
    <trip id="396" depart="551.17" from="E5" to="E4"/>
    <trip id="397" depart="552.56" from="7" to="E2"/>
    <trip id="398" depart="553.96" from="C2" to="E6"/>
    <trip id="399" depart="555.35" from="C5" to="E25"/>
    <trip id="400" depart="556.74" from="7" to="8"/>
    <trip id="401" depart="558.13" from="C7" to="E8"/>
    <trip id="402" depart="559.52" from="C4" to="3"/>
    <trip id="403" depart="560.92" from="C6" to="9"/>
    <trip id="404" depart="562.31" from="C6" to="C6"/>
    <trip id="405" depart="563.70" from="C3" to="8"/>
    <trip id="406" depart="565.09" from="4" to="E10"/>
    <trip id="407" depart="566.48" from="C7" to="5"/>
    <trip id="408" depart="567.87" from="E24" to="1"/>
    <trip id="409" depart="569.27" from="E2" to="E10"/>
    <trip id="410" depart="570.66" from="E3" to="C1"/>
    <trip id="411" depart="572.05" from="E1" to="E25"/>
    <trip id="412" depart="573.44" from="E9" to="C4"/>
    <trip id="413" depart="574.83" from="1" to="C5"/>
    <trip id="414" depart="576.23" from="C8" to="E4"/>
    <trip id="415" depart="577.62" from="E5" to="C2"/>
    <trip id="416" depart="579.01" from="C5" to="C3"/>
    <trip id="417" depart="580.40" from="E13" to="C1"/>
    <trip id="418" depart="581.79" from="E1" to="3"/>
    <trip id="419" depart="583.19" from="C3" to="E7"/>
    <trip id="420" depart="584.58" from="9" to="E10"/>
    <trip id="421" depart="585.97" from="E1" to="E3"/>
    <trip id="422" depart="587.36" from="E4" to="E4"/>
    <trip id="423" depart="588.75" from="C0" to="8"/>
    <trip id="424" depart="590.14" from="E13" to="E14"/>
    <trip id="425" depart="591.54" from="E5" to="1"/>
    <trip id="426" depart="592.93" from="10" to="E0"/>
    <trip id="427" depart="594.32" from="E7" to="E8"/>
    <trip id="428" depart="595.71" from="E2" to="C2"/>
    <trip id="429" depart="597.10" from="11" to="E0"/>
    <trip id="430" depart="598.50" from="E5" to="C3"/>
    <trip id="431" depart="599.89" from="E12" to="E5"/>
    <trip id="432" depart="601.28" from="1" to="E25"/>
    <trip id="433" depart="602.67" from="7" to="C0"/>
    <trip id="434" depart="604.06" from="2" to="C6"/>
    <trip id="435" depart="605.45" from="C7" to="E2"/>
    <trip id="436" depart="606.85" from="3" to="10"/>
    <trip id="437" depart="608.24" from="E5" to="E0"/>
    <trip id="438" depart="609.63" from="6" to="E6"/>
    <trip id="439" depart="611.02" from="2" to="C3"/>
    <trip id="440" depart="612.41" from="6" to="6"/>
    <trip id="441" depart="613.81" from="0" to="E25"/>
    <trip id="442" depart="615.20" from="E6" to="E10"/>
    <trip id="443" depart="616.59" from="3" to="C3"/>
    <trip id="444" depart="617.98" from="9" to="C7"/>
    <trip id="445" depart="619.37" from="E0" to="C2"/>
    <trip id="446" depart="620.77" from="6" to="E3"/>
    <trip id="447" depart="622.16" from="4" to="C1"/>
    <trip id="448" depart="623.55" from="C4" to="6"/>
    <trip id="449" depart="624.94" from="C7" to="C7"/>
    <trip id="450" depart="626.33" from="E9" to="8"/>
    <trip id="451" depart="627.72" from="E9" to="E1"/>
    <trip id="452" depart="629.12" from="7" to="C7"/>
    <trip id="453" depart="630.51" from="E12" to="E14"/>
    <trip id="454" depart="631.90" from="1" to="C8"/>
    <trip id="455" depart="633.29" from="C4" to="E5"/>
    <trip id="456" depart="634.68" from="7" to="E25"/>
    <trip id="457" depart="636.08" from="C8" to="9"/>
    <trip id="458" depart="637.47" from="E0" to="E0"/>
    <trip id="459" depart="638.86" from="E12" to="E11"/>
    <trip id="460" depart="640.25" from="E1" to="E3"/>
    <trip id="461" depart="641.64" from="E0" to="E5"/>
    <trip id="462" depart="643.03" from="E0" to="8"/>
    <trip id="463" depart="644.43" from="C2" to="C7"/>
    <trip id="464" depart="645.82" from="E13" to="11"/>
    <trip id="465" depart="647.21" from="8" to="E14"/>
    <trip id="466" depart="648.60" from="3" to="2"/>
    <trip id="467" depart="649.99" from="C6" to="E8"/>
    <trip id="468" depart="651.39" from="C6" to="E6"/>
    <trip id="469" depart="652.78" from="E4" to="6"/>
    <trip id="470" depart="654.17" from="E4" to="C4"/>
    <trip id="471" depart="655.56" from="E3" to="E14"/>
    <trip id="472" depart="656.95" from="9" to="11"/>
    <trip id="473" depart="658.35" from="E8" to="2"/>
    <trip id="474" depart="659.74" from="E8" to="E4"/>
    <trip id="475" depart="661.13" from="E13" to="E8"/>
    <trip id="476" depart="662.52" from="E8" to="E25"/>
    <trip id="477" depart="663.91" from="C0" to="E2"/>
    <trip id="478" depart="665.30" from="0" to="C6"/>
    <trip id="479" depart="666.70" from="C3" to="E1"/>
    <trip id="480" depart="668.09" from="E1" to="C7"/>
    <trip id="481" depart="669.48" from="E3" to="E6"/>
    <trip id="482" depart="670.87" from="11" to="5"/>
    <trip id="483" depart="672.26" from="0" to="E5"/>
    <trip id="484" depart="673.66" from="C7" to="E6"/>
    <trip id="485" depart="675.05" from="5" to="10"/>
    <trip id="486" depart="676.44" from="E4" to="E5"/>
    <trip id="487" depart="677.83" from="8" to="C1"/>
    <trip id="488" depart="679.22" from="2" to="E7"/>
    <trip id="489" depart="680.61" from="8" to="C4"/>
    <trip id="490" depart="682.01" from="11" to="E5"/>
    <trip id="491" depart="683.40" from="2" to="C3"/>
    <trip id="492" depart="684.79" from="E1" to="E14"/>
    <trip id="493" depart="686.18" from="E8" to="C2"/>
    <trip id="494" depart="687.57" from="E2" to="3"/>
    <trip id="495" depart="688.97" from="C2" to="11"/>
    <trip id="496" depart="690.36" from="C4" to="C1"/>
    <trip id="497" depart="691.75" from="E8" to="1"/>
    <trip id="498" depart="693.14" from="C0" to="C3"/>
    <trip id="499" depart="694.53" from="E8" to="E4"/>
    <trip id="500" depart="695.93" from="11" to="E10"/>
    <trip id="501" depart="697.32" from="C6" to="E8"/>
    <trip id="502" depart="698.71" from="C0" to="C1"/>
    <trip id="503" depart="700.10" from="4" to="2"/>
    <trip id="504" depart="701.49" from="E4" to="C3"/>
    <trip id="505" depart="702.88" from="E1" to="E0"/>
    <trip id="506" depart="704.28" from="C8" to="0"/>
    <trip id="507" depart="705.67" from="E24" to="6"/>
    <trip id="508" depart="707.06" from="2" to="C7"/>
    <trip id="509" depart="708.45" from="10" to="E2"/>
    <trip id="510" depart="709.84" from="5" to="5"/>
    <trip id="511" depart="711.24" from="E5" to="9"/>
    <trip id="512" depart="712.63" from="3" to="E5"/>
    <trip id="513" depart="714.02" from="0" to="E4"/>
    <trip id="514" depart="715.41" from="2" to="2"/>
    <trip id="515" depart="716.80" from="6" to="3"/>
    <trip id="516" depart="718.19" from="E1" to="0"/>
    <trip id="517" depart="719.59" from="0" to="E2"/>
    <trip id="518" depart="720.98" from="6" to="9"/>
    <trip id="519" depart="722.37" from="3" to="1"/>
    <trip id="520" depart="723.76" from="E2" to="C5"/>
    <trip id="521" depart="725.15" from="E2" to="C4"/>
    <trip id="522" depart="726.55" from="E24" to="C5"/>
    <trip id="523" depart="727.94" from="11" to="C5"/>
    <trip id="524" depart="729.33" from="E8" to="1"/>
    <trip id="525" depart="730.72" from="E24" to="E4"/>
    <trip id="526" depart="732.11" from="C5" to="C3"/>
    <trip id="527" depart="733.51" from="E8" to="10"/>
    <trip id="528" depart="734.90" from="C4" to="C1"/>
    <trip id="529" depart="736.29" from="E12" to="C4"/>
    <trip id="530" depart="737.68" from="E6" to="10"/>
    <trip id="531" depart="739.07" from="10" to="C8"/>
    <trip id="532" depart="740.46" from="10" to="7"/>
    <trip id="533" depart="741.86" from="E0" to="C6"/>
    <trip id="534" depart="743.25" from="9" to="E8"/>
    <trip id="535" depart="744.64" from="C6" to="C3"/>
    <trip id="536" depart="746.03" from="C8" to="11"/>
    <trip id="537" depart="747.42" from="E12" to="E3"/>
    <trip id="538" depart="748.82" from="E1" to="E2"/>
    <trip id="539" depart="750.21" from="E13" to="5"/>
    <trip id="540" depart="751.60" from="C3" to="5"/>
    <trip id="541" depart="752.99" from="9" to="C3"/>
    <trip id="542" depart="754.38" from="C2" to="11"/>
    <trip id="543" depart="755.77" from="C2" to="E1"/>