<?xml version="1.0" encoding="UTF-8"?>

<!-- generated on 2024-05-09 16:07:55.242966 by randomTrips.py v1_14_1+0000-f654d7b963e
<configuration>
    <begin value="5400"/>
    <end value="19800"/>
    <insertion-density value="5.0"/>
    <net-file value="singapore/sumo/singapore.net.xml"/>
    <route-file value="singapore/sumo/randomCarsTLS.rou.xml"/>
</configuration>
-->

<routes xmlns:xsi="http://www.w3.org/2001/XMLSchema-instance" xsi:noNamespaceSchemaLocation="http://sumo.dlr.de/xsd/routes_file.xsd">
    <trip id="0" depart="5400.00" from="628511633" to="174023709"/>
    <trip id="1" depart="5403.34" from="474929433" to="465467899"/>
    <trip id="2" depart="5406.68" from="635112968" to="632378379#0"/>
    <trip id="3" depart="5410.02" from="74527435" to="22698755"/>
    <trip id="4" depart="5413.36" from="479083905" to="174281633"/>
    <trip id="5" depart="5416.71" from="465123975" to="537979490"/>
    <trip id="6" depart="5420.05" from="174041987#0" to="45065755"/>
    <trip id="7" depart="5423.39" from="630160531" to="585646209#0"/>
    <trip id="8" depart="5426.73" from="465461960#0" to="602479029#0"/>
    <trip id="9" depart="5430.07" from="655144778" to="-747299409"/>
    <trip id="10" depart="5433.41" from="655143897" to="633149548"/>
    <trip id="11" depart="5436.75" from="476389382" to="445716684#0"/>
    <trip id="12" depart="5440.09" from="75516211" to="476389381"/>
    <trip id="13" depart="5443.44" from="22719965#0" to="234371419"/>
    <trip id="14" depart="5446.78" from="673494267" to="623713563#0"/>
    <trip id="15" depart="5450.12" from="655143897" to="634477657"/>
    <trip id="16" depart="5453.46" from="582412260" to="770367113"/>
    <trip id="17" depart="5456.80" from="476705431" to="585646221#0"/>
    <trip id="18" depart="5460.14" from="661351279" to="624291909"/>
    <trip id="19" depart="5463.48" from="717470515" to="585984927"/>
    <trip id="20" depart="5466.82" from="633197069" to="174886239"/>
    <trip id="21" depart="5470.17" from="467731257#0" to="475158000"/>
    <trip id="22" depart="5473.51" from="22698333" to="473439150"/>
    <trip id="23" depart="5476.85" from="284167586" to="475116738"/>
    <trip id="24" depart="5480.19" from="628485342" to="476692300"/>
    <trip id="25" depart="5483.53" from="476693038" to="464288956"/>
    <trip id="26" depart="5486.87" from="474446536" to="74902653"/>
    <trip id="27" depart="5490.21" from="630159972" to="623715810#0"/>
    <trip id="28" depart="5493.55" from="445716732" to="634477657"/>
    <trip id="29" depart="5496.90" from="445716694" to="476708349"/>
    <trip id="30" depart="5500.24" from="799571432" to="628515049"/>
    <trip id="31" depart="5503.58" from="585646225#0" to="632512661"/>
    <trip id="32" depart="5506.92" from="667699977" to="651180186"/>
    <trip id="33" depart="5510.26" from="470118588" to="174281657"/>
    <trip id="34" depart="5513.60" from="476112159" to="474446538"/>
    <trip id="35" depart="5516.94" from="464288982" to="74957629"/>
    <trip id="36" depart="5520.28" from="734884726" to="476112159"/>
    <trip id="37" depart="5523.63" from="630414222" to="477557471"/>
    <trip id="38" depart="5526.97" from="74687493" to="512918201#0"/>
    <trip id="39" depart="5530.31" from="474446533" to="474210631"/>
    <trip id="40" depart="5533.65" from="585703842#0" to="474446533"/>
    <trip id="41" depart="5536.99" from="587050475#0" to="74553758"/>
    <trip id="42" depart="5540.33" from="477574135" to="465461960#0"/>
    <trip id="43" depart="5543.67" from="824411067" to="538260866"/>
    <trip id="44" depart="5547.01" from="22699682" to="175959440"/>
    <trip id="45" depart="5550.36" from="32776560" to="627937588"/>
    <trip id="46" depart="5553.70" from="652572204" to="479124342"/>
    <trip id="47" depart="5557.04" from="22325259" to="476708352"/>
    <trip id="48" depart="5560.38" from="823685682#0" to="539671030"/>
    <trip id="49" depart="5563.72" from="769243288" to="717446183"/>
    <trip id="50" depart="5567.06" from="131891597" to="633826997"/>
    <trip id="51" depart="5570.40" from="632482225" to="582412262"/>
    <trip id="52" depart="5573.74" from="474446536" to="628515049"/>
    <trip id="53" depart="5577.09" from="33194100" to="479764653"/>
    <trip id="54" depart="5580.43" from="512918181#0" to="75511727"/>
    <trip id="55" depart="5583.77" from="734884726" to="474446533"/>
    <trip id="56" depart="5587.11" from="536913705" to="445716751"/>
    <trip id="57" depart="5590.45" from="74685970#0" to="722315777"/>
    <trip id="58" depart="5593.79" from="475163615" to="628511633"/>
    <trip id="59" depart="5597.13" from="623713566" to="445716683"/>
    <trip id="60" depart="5600.47" from="649386685" to="582412286#0"/>
    <trip id="61" depart="5603.82" from="651916279" to="581565348"/>
    <trip id="62" depart="5607.16" from="-22810638" to="476377509"/>
    <trip id="63" depart="5610.50" from="173792008" to="74746298"/>
    <trip id="64" depart="5613.84" from="744580202" to="661351281"/>
    <trip id="65" depart="5617.18" from="475171828" to="22291132"/>
    <trip id="66" depart="5620.52" from="744580202" to="74962078"/>
    <trip id="67" depart="5623.86" from="22698751#0" to="536913683"/>
    <trip id="68" depart="5627.20" from="22650763" to="649368017"/>
    <trip id="69" depart="5630.55" from="649626423" to="383281870"/>
    <trip id="70" depart="5633.89" from="535604972" to="585646214"/>
    <trip id="71" depart="5637.23" from="474446533" to="724076802"/>
    <trip id="72" depart="5640.57" from="479124342" to="464289006"/>
    <trip id="73" depart="5643.91" from="582412286#0" to="634477657"/>
    <trip id="74" depart="5647.25" from="463995441" to="476112155"/>
    <trip id="75" depart="5650.59" from="823685682#0" to="630163199"/>
    <trip id="76" depart="5653.93" from="479764655" to="538761282"/>
    <trip id="77" depart="5657.28" from="33793689" to="467689356"/>
    <trip id="78" depart="5660.62" from="476389381" to="602479029#0"/>
    <trip id="79" depart="5663.96" from="470118588" to="465461961"/>
    <trip id="80" depart="5667.30" from="22651486" to="628201210"/>
    <trip id="81" depart="5670.64" from="470118588" to="74668469"/>
    <trip id="82" depart="5673.98" from="717446183" to="22651486"/>
    <trip id="83" depart="5677.32" from="473440854" to="631722832"/>
    <trip id="84" depart="5680.66" from="464289009" to="383365020"/>
    <trip id="85" depart="5684.00" from="74869296" to="585984914"/>
    <trip id="86" depart="5687.35" from="533055058" to="652293278"/>
    <trip id="87" depart="5690.69" from="655143897" to="448937581"/>
    <trip id="88" depart="5694.03" from="234371419" to="479747060"/>
    <trip id="89" depart="5697.37" from="479124342" to="532990228"/>
    <trip id="90" depart="5700.71" from="634477657" to="631844130"/>
    <trip id="91" depart="5704.05" from="795505747" to="23816952"/>
    <trip id="92" depart="5707.39" from="477958806" to="476389383"/>
    <trip id="93" depart="5710.73" from="717470515" to="474427035"/>
    <trip id="94" depart="5714.08" from="448937581" to="512918179"/>
    <trip id="95" depart="5717.42" from="479083905" to="475116738"/>
    <trip id="96" depart="5720.76" from="474427034" to="74746294"/>
    <trip id="97" depart="5724.10" from="486025333" to="717470515"/>
    <trip id="98" depart="5727.44" from="585646214" to="175959568"/>
    <trip id="99" depart="5730.78" from="826116981" to="661665982"/>
    <trip id="100" depart="5734.12" from="761157096" to="74746295"/>
    <trip id="101" depart="5737.46" from="708802890" to="445716719"/>
    <trip id="102" depart="5740.81" from="536913673" to="464289009"/>
    <trip id="103" depart="5744.15" from="477711619" to="22291132"/>
    <trip id="104" depart="5747.49" from="476708349" to="795505748"/>
    <trip id="105" depart="5750.83" from="474446533" to="652292208"/>
    <trip id="106" depart="5754.17" from="512918192#0" to="479124342"/>
    <trip id="107" depart="5757.51" from="75516211" to="823685682#0"/>
    <trip id="108" depart="5760.85" from="585646223#0" to="633804506"/>
    <trip id="109" depart="5764.19" from="445716684#0" to="475159371"/>
    <trip id="110" depart="5767.54" from="761157096" to="585985522#0"/>
    <trip id="111" depart="5770.88" from="582412289#0" to="639626490"/>
    <trip id="112" depart="5774.22" from="21463643" to="587050477#0"/>
    <trip id="113" depart="5777.56" from="537579061" to="711645501"/>
    <trip id="114" depart="5780.90" from="445716686" to="756108190"/>
    <trip id="115" depart="5784.24" from="22698333" to="447712957"/>
    <trip id="116" depart="5787.58" from="617971450" to="632203646"/>
    <trip id="117" depart="5790.92" from="473439152" to="33793689"/>
    <trip id="118" depart="5794.27" from="74527434" to="474210631"/>
    <trip id="119" depart="5797.61" from="617971450" to="624291909"/>
    <trip id="120" depart="5800.95" from="479080151" to="587050475#0"/>
    <trip id="121" depart="5804.29" from="539379658" to="74869296"/>
    <trip id="122" depart="5807.63" from="464205497" to="633800167"/>
    <trip id="123" depart="5810.97" from="473440856" to="477557471"/>
    <trip id="124" depart="5814.31" from="631742210" to="475163616"/>
    <trip id="125" depart="5817.65" from="476112159" to="640008546"/>
    <trip id="126" depart="5821.00" from="22652564" to="512918198"/>
    <trip id="127" depart="5824.34" from="826116981" to="823685682#0"/>
    <trip id="128" depart="5827.68" from="22674809" to="464289009"/>
    <trip id="129" depart="5831.02" from="474446533" to="747882605"/>
    <trip id="130" depart="5834.36" from="74518112" to="74484458"/>
    <trip id="131" depart="5837.70" from="476693038" to="445716686"/>
    <trip id="132" depart="5841.04" from="661628136" to="633197069"/>
    <trip id="133" depart="5844.38" from="624291888#0" to="795505751"/>
    <trip id="134" depart="5847.73" from="630414222" to="1122289596"/>
    <trip id="135" depart="5851.07" from="655182285" to="475163616"/>
    <trip id="136" depart="5854.41" from="630829769" to="74914974"/>
    <trip id="137" depart="5857.75" from="391007728" to="33264343"/>
    <trip id="138" depart="5861.09" from="306116898" to="585646223#0"/>
    <trip id="139" depart="5864.43" from="474676253" to="623713563#0"/>
    <trip id="140" depart="5867.77" from="633804506" to="464008725"/>
    <trip id="141" depart="5871.11" from="628222001" to="474446536"/>
    <trip id="142" depart="5874.46" from="536913684" to="74668469"/>
    <trip id="143" depart="5877.80" from="673460196" to="22699682"/>
    <trip id="144" depart="5881.14" from="479124342" to="475116737"/>
    <trip id="145" depart="5884.48" from="-464288982" to="651065194"/>
    <trip id="146" depart="5887.82" from="628501871" to="474446530"/>
    <trip id="147" depart="5891.16" from="636737164" to="585646221#0"/>
    <trip id="148" depart="5894.50" from="479169488" to="131891597"/>
    <trip id="149" depart="5897.84" from="22694299" to="74518780"/>
    <trip id="150" depart="5901.19" from="74668469" to="585646211#0"/>
    <trip id="151" depart="5904.53" from="661628136" to="587050475#0"/>
    <trip id="152" depart="5907.87" from="445716678#0" to="383281870"/>
    <trip id="153" depart="5911.21" from="475171829" to="74553768"/>
    <trip id="154" depart="5914.55" from="654859626" to="717446183"/>
    <trip id="155" depart="5917.89" from="74553768" to="464289006"/>
    <trip id="156" depart="5921.23" from="474427034" to="305935878"/>
    <trip id="157" depart="5924.57" from="652009599" to="74518780"/>
    <trip id="158" depart="5927.91" from="478126343" to="626538765"/>
    <trip id="159" depart="5931.26" from="445716684#0" to="74746298"/>
    <trip id="160" depart="5934.60" from="717470516" to="792755656"/>
    <trip id="161" depart="5937.94" from="655145244" to="74518112"/>
    <trip id="162" depart="5941.28" from="174023709" to="636736093"/>
    <trip id="163" depart="5944.62" from="476381191" to="74769762"/>
    <trip id="164" depart="5947.96" from="655137145" to="717470516"/>
    <trip id="165" depart="5951.30" from="655145244" to="474446538"/>
    <trip id="166" depart="5954.64" from="652306771" to="325024345"/>
    <trip id="167" depart="5957.99" from="724076802" to="717446182"/>
    <trip id="168" depart="5961.33" from="465461961" to="655182285"/>
    <trip id="169" depart="5964.67" from="512918201#0" to="475171828"/>
    <trip id="170" depart="5968.01" from="654859626" to="470118588"/>
    <trip id="171" depart="5971.35" from="174023709" to="448937648"/>
    <trip id="172" depart="5974.69" from="476380447" to="717470516"/>
    <trip id="173" depart="5978.03" from="761157094" to="475116738"/>
    <trip id="174" depart="5981.37" from="628515049" to="477711619"/>
    <trip id="175" depart="5984.72" from="794631148" to="582412262"/>
    <trip id="176" depart="5988.06" from="74914974" to="33264343"/>
    <trip id="177" depart="5991.40" from="769243288" to="445716751"/>
    <trip id="178" depart="5994.74" from="758639272" to="474446536"/>
    <trip id="179" depart="5998.08" from="325024345" to="479764653"/>
    <trip id="180" depart="6001.42" from="634469471" to="476112157"/>
    <trip id="181" depart="6004.76" from="623713564" to="538417614"/>
    <trip id="182" depart="6008.10" from="476716878" to="585984927"/>
    <trip id="183" depart="6011.45" from="474428340" to="633245786"/>
    <trip id="184" depart="6014.79" from="-22810638" to="74746295"/>
    <trip id="185" depart="6018.13" from="582412262" to="633809926"/>
    <trip id="186" depart="6021.47" from="636737164" to="631742210"/>
    <trip id="187" depart="6024.81" from="476692298" to="22651486"/>
    <trip id="188" depart="6028.15" from="630854648" to="476381191"/>
    <trip id="189" depart="6031.49" from="476112157" to="708802890"/>
    <trip id="190" depart="6034.83" from="633809926" to="475163616"/>
    <trip id="191" depart="6038.18" from="475171829" to="478162426"/>
    <trip id="192" depart="6041.52" from="477958806" to="475159371"/>
    <trip id="193" depart="6044.86" from="383281870" to="479083905"/>
    <trip id="194" depart="6048.20" from="74914974" to="632378379#0"/>
    <trip id="195" depart="6051.54" from="74553776" to="624291892"/>
    <trip id="196" depart="6054.88" from="475163616" to="585646212#0"/>
    <trip id="197" depart="6058.22" from="-22810638" to="475156717"/>
    <trip id="198" depart="6061.56" from="479337786" to="587048092"/>
    <trip id="199" depart="6064.91" from="630414222" to="532977599"/>
    <trip id="200" depart="6068.25" from="482256070" to="464289009"/>
    <trip id="201" depart="6071.59" from="533055059" to="74553771"/>
    <trip id="202" depart="6074.93" from="654859626" to="445716732"/>
    <trip id="203" depart="6078.27" from="22698751#0" to="538754961"/>
    <trip id="204" depart="6081.61" from="628222001" to="476389380"/>
    <trip id="205" depart="6084.95" from="655504834" to="639916002"/>
    <trip id="206" depart="6088.29" from="631742210" to="467689356"/>
    <trip id="207" depart="6091.64" from="45065755" to="174023709"/>
    <trip id="208" depart="6094.98" from="473888861" to="535604972"/>
    <trip id="209" depart="6098.32" from="708802890" to="22652564"/>
    <trip id="210" depart="6101.66" from="478930899" to="627983391"/>
    <trip id="211" depart="6105.00" from="448937650" to="633146417"/>
    <trip id="212" depart="6108.34" from="536913696" to="473888861"/>
    <trip id="213" depart="6111.68" from="630417422" to="-645158440"/>
    <trip id="214" depart="6115.02" from="639916002" to="650919577"/>
    <trip id="215" depart="6118.37" from="306116898" to="479169486"/>
    <trip id="216" depart="6121.71" from="445716748" to="756107569"/>
    <trip id="217" depart="6125.05" from="538761282" to="175959568"/>
    <trip id="218" depart="6128.39" from="474427034" to="708802890"/>
    <trip id="219" depart="6131.73" from="512918195#0" to="655041844"/>
    <trip id="220" depart="6135.07" from="630866045" to="795505751"/>
    <trip id="221" depart="6138.41" from="617971450" to="75039128"/>
    <trip id="222" depart="6141.75" from="74527435" to="624291888#0"/>
    <trip id="223" depart="6145.10" from="633809926" to="537979489#0"/>
    <trip id="224" depart="6148.44" from="661351279" to="585646212#0"/>
    <trip id="225" depart="6151.78" from="74553758" to="639549065"/>
    <trip id="226" depart="6155.12" from="533055059" to="474446528"/>
    <trip id="227" depart="6158.46" from="474210631" to="628501871"/>
    <trip id="228" depart="6161.80" from="649626423" to="539379658"/>
    <trip id="229" depart="6165.14" from="627937587" to="474929433"/>
    <trip id="230" depart="6168.48" from="22698325" to="475156717"/>
    <trip id="231" depart="6171.83" from="474676253" to="476374559#0"/>
    <trip id="232" depart="6175.17" from="582412286#0" to="391007733#0"/>
    <trip id="233" depart="6178.51" from="473393255" to="632953499"/>
    <trip id="234" depart="6181.85" from="633219124#0" to="22325259"/>
    <trip id="235" depart="6185.19" from="478126343" to="582412290#0"/>
    <trip id="236" depart="6188.53" from="479079789" to="464288938"/>
    <trip id="237" depart="6191.87" from="479083903" to="74668469"/>
    <trip id="238" depart="6195.21" from="587050475#0" to="632953499"/>
    <trip id="239" depart="6198.55" from="717446180" to="649626423"/>
    <trip id="240" depart="6201.90" from="476708349" to="-747299409"/>
    <trip id="241" depart="6205.24" from="476395133" to="641071354"/>
    <trip id="242" depart="6208.58" from="711645501" to="75070576"/>
    <trip id="243" depart="6211.92" from="479080151" to="639626489"/>
    <trip id="244" depart="6215.26" from="585646209#0" to="623713563#0"/>
    <trip id="245" depart="6218.60" from="465461960#0" to="465461960#0"/>
    <trip id="246" depart="6221.94" from="479764653" to="174281633"/>
    <trip id="247" depart="6225.28" from="476389380" to="632474268"/>
    <trip id="248" depart="6228.63" from="478126342" to="445716717"/>
    <trip id="249" depart="6231.97" from="532990228" to="383281870"/>
    <trip id="250" depart="6235.31" from="626538765" to="174041987#0"/>
    <trip id="251" depart="6238.65" from="477557468" to="585984904"/>
    <trip id="252" depart="6241.99" from="174281625" to="628706178"/>
    <trip id="253" depart="6245.33" from="391007732#0" to="528461110"/>
    <trip id="254" depart="6248.67" from="175959568" to="476708349"/>
    <trip id="255" depart="6252.01" from="464289006" to="476380447"/>
    <trip id="256" depart="6255.36" from="649368017" to="476708349"/>
    <trip id="257" depart="6258.70" from="640008546" to="661351281"/>
    <trip id="258" depart="6262.04" from="474428337" to="22698361"/>
    <trip id="259" depart="6265.38" from="173792008" to="582412286#0"/>
    <trip id="260" depart="6268.72" from="826116981" to="476395133"/>
    <trip id="261" depart="6272.06" from="630163199" to="652012496"/>
    <trip id="262" depart="6275.40" from="630163199" to="641071354"/>
    <trip id="263" depart="6278.74" from="74962088" to="45065755"/>
    <trip id="264" depart="6282.09" from="173792008" to="445716683"/>
    <trip id="265" depart="6285.43" from="358645124" to="631722832"/>
    <trip id="266" depart="6288.77" from="585984904" to="465461960#0"/>
    <trip id="267" depart="6292.11" from="633149548" to="649924884"/>
    <trip id="268" depart="6295.45" from="445716721" to="623713566"/>
    <trip id="269" depart="6298.79" from="639626489" to="33264343"/>
    <trip id="270" depart="6302.13" from="655653617" to="758858115"/>
    <trip id="271" depart="6305.47" from="325024345" to="174041987#0"/>
    <trip id="272" depart="6308.82" from="476112155" to="632378379#0"/>
    <trip id="273" depart="6312.16" from="756107569" to="477557471"/>
    <trip id="274" depart="6315.50" from="633788296" to="22694299"/>
    <trip id="275" depart="6318.84" from="632569391" to="627937588"/>
    <trip id="276" depart="6322.18" from="284167586" to="651065194"/>
    <trip id="277" depart="6325.52" from="708819911" to="623353013"/>
    <trip id="278" depart="6328.86" from="33793689" to="795505747"/>
    <trip id="279" depart="6332.20" from="652012496" to="476395130"/>
    <trip id="280" depart="6335.55" from="479169488" to="476703993"/>
    <trip id="281" depart="6338.89" from="537979490" to="476389388"/>
    <trip id="282" depart="6342.23" from="708802890" to="655655597"/>
    <trip id="283" depart="6345.57" from="305935886" to="756108190"/>
    <trip id="284" depart="6348.91" from="628485342" to="661351279"/>
    <trip id="285" depart="6352.25" from="633219124#0" to="479764655"/>
    <trip id="286" depart="6355.59" from="634806490" to="761157094"/>
    <trip id="287" depart="6358.93" from="474471903" to="655144778"/>
    <trip id="288" depart="6362.28" from="582412262" to="536913672"/>
    <trip id="289" depart="6365.62" from="479764653" to="634794777"/>
    <trip id="290" depart="6368.96" from="474446538" to="711645501"/>
    <trip id="291" depart="6372.30" from="661351279" to="22698751#0"/>
    <trip id="292" depart="6375.64" from="74518112" to="473888861"/>
    <trip id="293" depart="6378.98" from="532977598" to="623715810#0"/>
    <trip id="294" depart="6382.32" from="476708349" to="174281625"/>
    <trip id="295" depart="6385.66" from="708819911" to="445716788#0"/>
    <trip id="296" depart="6389.01" from="464289006" to="655041207"/>
    <trip id="297" depart="6392.35" from="476389382" to="74484458"/>
    <trip id="298" depart="6395.69" from="633194211" to="475116737"/>
    <trip id="299" depart="6399.03" from="131891597" to="74962088"/>
    <trip id="300" depart="6402.37" from="22698751#0" to="633809926"/>
    <trip id="301" depart="6405.71" from="536913684" to="649078302#0"/>
    <trip id="302" depart="6409.05" from="632569391" to="630159972"/>
    <trip id="303" depart="6412.39" from="536913687" to="654766089"/>
    <trip id="304" depart="6415.74" from="22719965#0" to="465467899"/>
    <trip id="305" depart="6419.08" from="632569391" to="475171828"/>
    <trip id="306" depart="6422.42" from="587048092" to="533055059"/>
    <trip id="307" depart="6425.76" from="581565348" to="479169486"/>
    <trip id="308" depart="6429.10" from="639549066" to="476381191"/>
    <trip id="309" depart="6432.44" from="633194212" to="474676253"/>
    <trip id="310" depart="6435.78" from="474427035" to="33793689"/>
    <trip id="311" depart="6439.12" from="448937648" to="33793689"/>
    <trip id="312" depart="6442.46" from="582412260" to="649386685"/>
    <trip id="313" depart="6445.81" from="447712957" to="465123975"/>
    <trip id="314" depart="6449.15" from="536913672" to="634184990"/>
    <trip id="315" depart="6452.49" from="792755656" to="539638975"/>
    <trip id="316" depart="6455.83" from="475134293" to="284167586"/>
    <trip id="317" depart="6459.17" from="448937648" to="470118588"/>
    <trip id="318" depart="6462.51" from="445716787" to="172065637#0"/>
    <trip id="319" depart="6465.85" from="581565350" to="474929433"/>
    <trip id="320" depart="6469.19" from="770367113" to="585646223#0"/>
    <trip id="321" depart="6472.54" from="633146417" to="358645124"/>
    <trip id="322" depart="6475.88" from="718229612" to="536913687"/>
    <trip id="323" depart="6479.22" from="724076802" to="585984921"/>
    <trip id="324" depart="6482.56" from="533055054" to="482256070"/>
    <trip id="325" depart="6485.90" from="445716790" to="175959568"/>
    <trip id="326" depart="6489.24" from="74953808" to="535665919"/>
    <trip id="327" depart="6492.58" from="655655597" to="477711619"/>
    <trip id="328" depart="6495.92" from="22674809" to="627983391"/>
    <trip id="329" depart="6499.27" from="190451325" to="445716678#0"/>
    <trip id="330" depart="6502.61" from="585706001" to="475171826"/>
    <trip id="331" depart="6505.95" from="820408640" to="33264691#0"/>
    <trip id="332" depart="6509.29" from="649405237" to="623713564"/>
    <trip id="333" depart="6512.63" from="652572204" to="467731257#0"/>
    <trip id="334" depart="6515.97" from="539379658" to="512918180"/>
    <trip id="335" depart="6519.31" from="486025333" to="717446183"/>
    <trip id="336" depart="6522.65" from="799571432" to="475171828"/>
    <trip id="337" depart="6526.00" from="624291909" to="623715810#0"/>
    <trip id="338" depart="6529.34" from="636736606" to="74962078"/>
    <trip id="339" depart="6532.68" from="464288956" to="464289006"/>
    <trip id="340" depart="6536.02" from="630419697" to="445716686"/>
    <trip id="341" depart="6539.36" from="445716747#0" to="22674809"/>
    <trip id="342" depart="6542.70" from="-464288982" to="512918180"/>
    <trip id="343" depart="6546.04" from="617971449" to="475158907"/>
    <trip id="344" depart="6549.38" from="473393255" to="633219124#0"/>
    <trip id="345" depart="6552.73" from="633194212" to="512918192#0"/>
    <trip id="346" depart="6556.07" from="632561159" to="74746294"/>
    <trip id="347" depart="6559.41" from="652306771" to="627937587"/>
    <trip id="348" depart="6562.75" from="630419697" to="747882605"/>
    <trip id="349" depart="6566.09" from="479169486" to="585646209#0"/>
    <trip id="350" depart="6569.43" from="630159972" to="74675111"/>
    <trip id="351" depart="6572.77" from="661340995" to="22652564"/>
    <trip id="352" depart="6576.11" from="445716719" to="475171829"/>
    <trip id="353" depart="6579.46" from="639626490" to="585984913"/>
    <trip id="354" depart="6582.80" from="475157992" to="349416402"/>
    <trip id="355" depart="6586.14" from="632562097#0" to="633194211"/>
    <trip id="356" depart="6589.48" from="74957629" to="536913705"/>
    <trip id="357" depart="6592.82" from="536913690" to="22698333"/>
    <trip id="358" depart="6596.16" from="174765783" to="479754537"/>
    <trip id="359" depart="6599.50" from="476374560" to="474427035"/>
    <trip id="360" depart="6602.84" from="22699682" to="758639272"/>
    <trip id="361" depart="6606.19" from="661665982" to="585984926"/>
    <trip id="362" depart="6609.53" from="75039128" to="826116981"/>
    <trip id="363" depart="6612.87" from="631742210" to="474471903"/>
    <trip id="364" depart="6616.21" from="174765783" to="646693374#0"/>
    <trip id="365" depart="6619.55" from="533055054" to="630171311"/>
    <trip id="366" depart="6622.89" from="746927170" to="445716788#0"/>
    <trip id="367" depart="6626.23" from="587050477#0" to="628485342"/>
    <trip id="368" depart="6629.57" from="536913687" to="22699682"/>
    <trip id="369" depart="6632.92" from="476395125" to="476389378"/>
    <trip id="370" depart="6636.26" from="631722832" to="717446182"/>
    <trip id="371" depart="6639.60" from="476380451" to="632953499"/>
    <trip id="372" depart="6642.94" from="475156717" to="74957634"/>
    <trip id="373" depart="6646.28" from="655147259" to="585646214"/>
    <trip id="374" depart="6649.62" from="512918192#0" to="476112159"/>
    <trip id="375" depart="6652.96" from="476374561#0" to="769243288"/>
    <trip id="376" depart="6656.30" from="478126342" to="538754961"/>
    <trip id="377" depart="6659.65" from="795505751" to="630419696#0"/>
    <trip id="378" depart="6662.99" from="582412290#0" to="478930899"/>
    <trip id="379" depart="6666.33" from="447713253#0" to="476692295"/>
    <trip id="380" depart="6669.67" from="646693374#0" to="627937587"/>
    <trip id="381" depart="6673.01" from="649368017" to="464008725"/>
    <trip id="382" depart="6676.35" from="585646212#0" to="74746296"/>
    <trip id="383" depart="6679.69" from="479764655" to="633149548"/>
    <trip id="384" depart="6683.03" from="34905413" to="770367113"/>
    <trip id="385" depart="6686.38" from="623713566" to="473440857"/>
    <trip id="386" depart="6689.72" from="445716691" to="585646214"/>
    <trip id="387" depart="6693.06" from="585646221#0" to="22719965#0"/>
    <trip id="388" depart="6696.40" from="816753391" to="74685970#0"/>
    <trip id="389" depart="6699.74" from="512918201#0" to="33264605"/>
    <trip id="390" depart="6703.08" from="661351281" to="536913703"/>
    <trip id="391" depart="6706.42" from="633800167" to="538260866"/>
    <trip id="392" depart="6709.76" from="474929430" to="661665982"/>
    <trip id="393" depart="6713.10" from="794628388" to="473888861"/>
    <trip id="394" depart="6716.45" from="585646214" to="476716878"/>
    <trip id="395" depart="6719.79" from="747402010" to="538007788"/>
    <trip id="396" depart="6723.13" from="74484458" to="717470516"/>
    <trip id="397" depart="6726.47" from="474929433" to="652572204"/>
    <trip id="398" depart="6729.81" from="478930899" to="747882605"/>
    <trip id="399" depart="6733.15" from="538007788" to="655653617"/>
    <trip id="400" depart="6736.49" from="475134293" to="475163615"/>
    <trip id="401" depart="6739.83" from="594262532#0" to="826116981"/>
    <trip id="402" depart="6743.18" from="536913684" to="445716678#0"/>
    <trip id="403" depart="6746.52" from="582412286#0" to="476395125"/>
    <trip id="404" depart="6749.86" from="585646214" to="585646209#0"/>
    <trip id="405" depart="6753.20" from="512918192#0" to="476374561#0"/>
    <trip id="406" depart="6756.54" from="448937581" to="633149548"/>
    <trip id="407" depart="6759.88" from="585984914" to="473439152"/>
    <trip id="408" depart="6763.22" from="651180186" to="174886203"/>
    <trip id="409" depart="6766.56" from="639549066" to="633219124#0"/>
    <trip id="410" depart="6769.91" from="655145244" to="476752807"/>
    <trip id="411" depart="6773.25" from="630854648" to="655653617"/>
    <trip id="412" depart="6776.59" from="794631148" to="536913699"/>
    <trip id="413" depart="6779.93" from="174552467" to="537579061"/>
    <trip id="414" depart="6783.27" from="602479029#0" to="722315777"/>
    <trip id="415" depart="6786.61" from="726602325" to="482256070"/>
    <trip id="416" depart="6789.95" from="539638975" to="512918198"/>
    <trip id="417" depart="6793.29" from="633826997" to="478313239"/>
    <trip id="418" depart="6796.64" from="630414222" to="445716684#0"/>
    <trip id="419" depart="6799.98" from="533055054" to="769243288"/>
    <trip id="420" depart="6803.32" from="476389382" to="632953495"/>