<?xml version="1.0" encoding="UTF-8"?>

<!-- generated on 2024-07-16 15:53:45.511444 by randomtrips.py v1_14_1+0000-f654d7b963e
<configuration>
    <end value="3000"/>
    <insertion-density value="29.0"/>
    <net-file value="scenario2/sumo/ring.net.xml"/>
    <route-file value="scenario2/sumo/traffic29_2.rou.xml"/>
</configuration>
-->

<routes xmlns:xsi="http://www.w3.org/2001/XMLSchema-instance" xsi:noNamespaceSchemaLocation="http://sumo.dlr.de/xsd/routes_file.xsd">
    <trip id="0" depart="0.00" from="E0" to="0"/>
    <trip id="1" depart="4.49" from="7" to="5"/>
    <trip id="2" depart="8.98" from="E2" to="E10"/>
    <trip id="3" depart="13.47" from="E6" to="10"/>
    <trip id="4" depart="17.97" from="C10" to="1"/>
    <trip id="5" depart="22.46" from="5" to="C6"/>
    <trip id="6" depart="26.95" from="0" to="4"/>
    <trip id="7" depart="31.44" from="E1" to="C7"/>
    <trip id="8" depart="35.93" from="5" to="C9"/>
    <trip id="9" depart="40.42" from="E30" to="0"/>
    <trip id="10" depart="44.91" from="E30" to="E10"/>
    <trip id="11" depart="49.40" from="9" to="3"/>
    <trip id="12" depart="53.90" from="E8" to="9"/>
    <trip id="13" depart="58.39" from="11" to="11"/>
    <trip id="14" depart="62.88" from="E4" to="C9"/>
    <trip id="15" depart="67.37" from="E30" to="E11"/>
    <trip id="16" depart="71.86" from="C7" to="E8"/>
    <trip id="17" depart="76.35" from="C0" to="C7"/>
    <trip id="18" depart="80.84" from="E4" to="E0"/>
    <trip id="19" depart="85.33" from="E5" to="C8"/>
    <trip id="20" depart="89.83" from="E12" to="1"/>
    <trip id="21" depart="94.32" from="5" to="7"/>
    <trip id="22" depart="98.81" from="10" to="5"/>
    <trip id="23" depart="103.30" from="11" to="7"/>
    <trip id="24" depart="107.79" from="E0" to="C0"/>
    <trip id="25" depart="112.28" from="C0" to="5"/>
    <trip id="26" depart="116.77" from="7" to="E6"/>
    <trip id="27" depart="121.26" from="E1" to="C9"/>
    <trip id="28" depart="125.76" from="3" to="E11"/>
    <trip id="29" depart="130.25" from="3" to="C0"/>
    <trip id="30" depart="134.74" from="E9" to="E0"/>
    <trip id="31" depart="139.23" from="C7" to="E10"/>
    <trip id="32" depart="143.72" from="E4" to="E2"/>
    <trip id="33" depart="148.21" from="5" to="1"/>
    <trip id="34" depart="152.70" from="8" to="7"/>
    <trip id="35" depart="157.19" from="5" to="E7"/>
    <trip id="36" depart="161.69" from="E5" to="8"/>
    <trip id="37" depart="166.18" from="E1" to="C1"/>
    <trip id="38" depart="170.67" from="E7" to="C11"/>
    <trip id="39" depart="175.16" from="7" to="6"/>
    <trip id="40" depart="179.65" from="C8" to="6"/>
    <trip id="41" depart="184.14" from="C8" to="E5"/>
    <trip id="42" depart="188.63" from="C1" to="5"/>
    <trip id="43" depart="193.13" from="E9" to="C6"/>
    <trip id="44" depart="197.62" from="11" to="1"/>
    <trip id="45" depart="202.11" from="11" to="E0"/>
    <trip id="46" depart="206.60" from="E3" to="C10"/>
    <trip id="47" depart="211.09" from="10" to="C0"/>
    <trip id="48" depart="215.58" from="E9" to="C6"/>
    <trip id="49" depart="220.07" from="E9" to="E4"/>
    <trip id="50" depart="224.56" from="0" to="E11"/>
    <trip id="51" depart="229.06" from="E12" to="C7"/>
    <trip id="52" depart="233.55" from="7" to="E0"/>
    <trip id="53" depart="238.04" from="11" to="C10"/>
    <trip id="54" depart="242.53" from="C11" to="E7"/>
    <trip id="55" depart="247.02" from="E5" to="6"/>
    <trip id="56" depart="251.51" from="C6" to="4"/>
    <trip id="57" depart="256.00" from="E7" to="E4"/>
    <trip id="58" depart="260.49" from="8" to="E0"/>
    <trip id="59" depart="264.99" from="C9" to="3"/>
    <trip id="60" depart="269.48" from="E2" to="C7"/>
    <trip id="61" depart="273.97" from="E3" to="C7"/>
    <trip id="62" depart="278.46" from="0" to="9"/>
    <trip id="63" depart="282.95" from="0" to="E6"/>
    <trip id="64" depart="287.44" from="E5" to="E3"/>
    <trip id="65" depart="291.93" from="8" to="1"/>
    <trip id="66" depart="296.42" from="E5" to="E7"/>
    <trip id="67" depart="300.92" from="10" to="C2"/>
    <trip id="68" depart="305.41" from="10" to="E14"/>
    <trip id="69" depart="309.90" from="E3" to="2"/>
    <trip id="70" depart="314.39" from="C2" to="C7"/>
    <trip id="71" depart="318.88" from="7" to="E4"/>
    <trip id="72" depart="323.37" from="C10" to="5"/>
    <trip id="73" depart="327.86" from="C7" to="E11"/>
    <trip id="74" depart="332.35" from="4" to="8"/>
    <trip id="75" depart="336.85" from="E9" to="E1"/>
    <trip id="76" depart="341.34" from="C10" to="C6"/>
    <trip id="77" depart="345.83" from="2" to="5"/>
    <trip id="78" depart="350.32" from="9" to="C9"/>
    <trip id="79" depart="354.81" from="5" to="5"/>
    <trip id="80" depart="359.30" from="10" to="E0"/>
    <trip id="81" depart="363.79" from="5" to="E5"/>
    <trip id="82" depart="368.29" from="E5" to="10"/>
    <trip id="83" depart="372.78" from="6" to="E1"/>
    <trip id="84" depart="377.27" from="5" to="2"/>
    <trip id="85" depart="381.76" from="E7" to="C8"/>
    <trip id="86" depart="386.25" from="C2" to="E2"/>
    <trip id="87" depart="390.74" from="E30" to="4"/>
    <trip id="88" depart="395.23" from="11" to="C10"/>
    <trip id="89" depart="399.72" from="C10" to="C11"/>
    <trip id="90" depart="404.22" from="E13" to="E1"/>
    <trip id="91" depart="408.71" from="E9" to="11"/>
    <trip id="92" depart="413.20" from="C1" to="9"/>
    <trip id="93" depart="417.69" from="E5" to="6"/>
    <trip id="94" depart="422.18" from="4" to="C11"/>
    <trip id="95" depart="426.67" from="C10" to="7"/>
    <trip id="96" depart="431.16" from="6" to="E6"/>
    <trip id="97" depart="435.65" from="C11" to="E4"/>
    <trip id="98" depart="440.15" from="C7" to="1"/>
    <trip id="99" depart="444.64" from="E9" to="E3"/>
    <trip id="100" depart="449.13" from="E8" to="E6"/>
    <trip id="101" depart="453.62" from="E4" to="3"/>
    <trip id="102" depart="458.11" from="C2" to="5"/>
    <trip id="103" depart="462.60" from="C1" to="1"/>
    <trip id="104" depart="467.09" from="C0" to="E8"/>
    <trip id="105" depart="471.58" from="7" to="E2"/>
    <trip id="106" depart="476.08" from="C11" to="C10"/>
    <trip id="107" depart="480.57" from="E8" to="E8"/>
    <trip id="108" depart="485.06" from="C7" to="E11"/>
    <trip id="109" depart="489.55" from="3" to="8"/>
    <trip id="110" depart="494.04" from="E8" to="C8"/>
    <trip id="111" depart="498.53" from="C7" to="E14"/>
    <trip id="112" depart="503.02" from="1" to="C8"/>
    <trip id="113" depart="507.51" from="C6" to="E3"/>
    <trip id="114" depart="512.01" from="3" to="E7"/>
    <trip id="115" depart="516.50" from="10" to="4"/>
    <trip id="116" depart="520.99" from="C9" to="E1"/>
    <trip id="117" depart="525.48" from="5" to="2"/>
    <trip id="118" depart="529.97" from="E6" to="6"/>
    <trip id="119" depart="534.46" from="C9" to="E0"/>
    <trip id="120" depart="538.95" from="C10" to="C8"/>
    <trip id="121" depart="543.45" from="C6" to="E6"/>
    <trip id="122" depart="547.94" from="4" to="E11"/>
    <trip id="123" depart="552.43" from="6" to="C1"/>
    <trip id="124" depart="556.92" from="E1" to="8"/>
    <trip id="125" depart="561.41" from="8" to="E14"/>
    <trip id="126" depart="565.90" from="10" to="C11"/>
    <trip id="127" depart="570.39" from="E9" to="E8"/>
    <trip id="128" depart="574.88" from="10" to="5"/>
    <trip id="129" depart="579.38" from="7" to="E6"/>
    <trip id="130" depart="583.87" from="E5" to="E4"/>
    <trip id="131" depart="588.36" from="C0" to="3"/>
    <trip id="132" depart="592.85" from="E4" to="E10"/>
    <trip id="133" depart="597.34" from="C9" to="E8"/>
    <trip id="134" depart="601.83" from="E1" to="0"/>
    <trip id="135" depart="606.32" from="E30" to="8"/>
    <trip id="136" depart="610.81" from="E1" to="E6"/>
    <trip id="137" depart="615.31" from="2" to="11"/>
    <trip id="138" depart="619.80" from="11" to="C7"/>
    <trip id="139" depart="624.29" from="7" to="C9"/>
    <trip id="140" depart="628.78" from="E13" to="4"/>
    <trip id="141" depart="633.27" from="E0" to="6"/>
    <trip id="142" depart="637.76" from="C2" to="E5"/>
    <trip id="143" depart="642.25" from="E4" to="11"/>
    <trip id="144" depart="646.74" from="C10" to="7"/>
    <trip id="145" depart="651.24" from="0" to="E2"/>
    <trip id="146" depart="655.73" from="E0" to="6"/>
    <trip id="147" depart="660.22" from="E2" to="C7"/>
    <trip id="148" depart="664.71" from="C10" to="0"/>
    <trip id="149" depart="669.20" from="10" to="E5"/>
    <trip id="150" depart="673.69" from="E6" to="C7"/>
    <trip id="151" depart="678.18" from="E4" to="C8"/>
    <trip id="152" depart="682.67" from="3" to="2"/>
    <trip id="153" depart="687.17" from="8" to="E5"/>
    <trip id="154" depart="691.66" from="E30" to="E4"/>
    <trip id="155" depart="696.15" from="E6" to="5"/>
    <trip id="156" depart="700.64" from="6" to="11"/>
    <trip id="157" depart="705.13" from="E3" to="E5"/>
    <trip id="158" depart="709.62" from="C1" to="E0"/>
    <trip id="159" depart="714.11" from="3" to="E6"/>
    <trip id="160" depart="718.60" from="E5" to="E8"/>
    <trip id="161" depart="723.10" from="E30" to="E4"/>
    <trip id="162" depart="727.59" from="0" to="E14"/>
    <trip id="163" depart="732.08" from="9" to="E6"/>
    <trip id="164" depart="736.57" from="E30" to="E4"/>
    <trip id="165" depart="741.06" from="E30" to="7"/>
    <trip id="166" depart="745.55" from="E3" to="11"/>
    <trip id="167" depart="750.04" from="E5" to="E4"/>
    <trip id="168" depart="754.54" from="5" to="E29"/>
    <trip id="169" depart="759.03" from="C11" to="8"/>
    <trip id="170" depart="763.52" from="E30" to="5"/>
    <trip id="171" depart="768.01" from="0" to="4"/>
    <trip id="172" depart="772.50" from="9" to="E4"/>
    <trip id="173" depart="776.99" from="E8" to="7"/>
    <trip id="174" depart="781.48" from="E0" to="C1"/>
    <trip id="175" depart="785.97" from="E9" to="C7"/>
    <trip id="176" depart="790.47" from="E7" to="11"/>
    <trip id="177" depart="794.96" from="E8" to="4"/>
    <trip id="178" depart="799.45" from="E8" to="7"/>
    <trip id="179" depart="803.94" from="11" to="C10"/>
    <trip id="180" depart="808.43" from="E13" to="8"/>
    <trip id="181" depart="812.92" from="C9" to="C6"/>
    <trip id="182" depart="817.41" from="C1" to="C8"/>
    <trip id="183" depart="821.90" from="6" to="E11"/>
    <trip id="184" depart="826.40" from="0" to="E6"/>
    <trip id="185" depart="830.89" from="C7" to="E11"/>
    <trip id="186" depart="835.38" from="E2" to="E1"/>
    <trip id="187" depart="839.87" from="C0" to="10"/>
    <trip id="188" depart="844.36" from="E1" to="9"/>
    <trip id="189" depart="848.85" from="8" to="E3"/>
    <trip id="190" depart="853.34" from="E13" to="8"/>
    <trip id="191" depart="857.83" from="8" to="C1"/>
    <trip id="192" depart="862.33" from="C1" to="8"/>
    <trip id="193" depart="866.82" from="2" to="C10"/>
    <trip id="194" depart="871.31" from="E7" to="E10"/>
    <trip id="195" depart="875.80" from="E6" to="C9"/>
    <trip id="196" depart="880.29" from="8" to="C7"/>
    <trip id="197" depart="884.78" from="0" to="7"/>
    <trip id="198" depart="889.27" from="C10" to="C8"/>
    <trip id="199" depart="893.76" from="E1" to="C11"/>
    <trip id="200" depart="898.26" from="C11" to="5"/>
    <trip id="201" depart="902.75" from="C2" to="E5"/>
    <trip id="202" depart="907.24" from="E30" to="3"/>
    <trip id="203" depart="911.73" from="10" to="C6"/>
    <trip id="204" depart="916.22" from="E0" to="9"/>
    <trip id="205" depart="920.71" from="E30" to="E14"/>
    <trip id="206" depart="925.20" from="E1" to="5"/>
    <trip id="207" depart="929.70" from="4" to="0"/>
    <trip id="208" depart="934.19" from="6" to="C2"/>
    <trip id="209" depart="938.68" from="E4" to="10"/>
    <trip id="210" depart="943.17" from="C10" to="E0"/>
    <trip id="211" depart="947.66" from="4" to="E10"/>
    <trip id="212" depart="952.15" from="C2" to="6"/>
    <trip id="213" depart="956.64" from="E1" to="0"/>
    <trip id="214" depart="961.13" from="E2" to="E2"/>
    <trip id="215" depart="965.63" from="11" to="C10"/>
    <trip id="216" depart="970.12" from="3" to="E7"/>
    <trip id="217" depart="974.61" from="C6" to="1"/>
    <trip id="218" depart="979.10" from="6" to="E3"/>
    <trip id="219" depart="983.59" from="C11" to="E29"/>
    <trip id="220" depart="988.08" from="E1" to="E8"/>
    <trip id="221" depart="992.57" from="C9" to="E7"/>
    <trip id="222" depart="997.06" from="E6" to="C9"/>
    <trip id="223" depart="1001.56" from="E13" to="C6"/>
    <trip id="224" depart="1006.05" from="E4" to="C7"/>
    <trip id="225" depart="1010.54" from="E6" to="E14"/>
    <trip id="226" depart="1015.03" from="C2" to="6"/>
    <trip id="227" depart="1019.52" from="6" to="E0"/>
    <trip id="228" depart="1024.01" from="E3" to="C6"/>
    <trip id="229" depart="1028.50" from="E0" to="7"/>
    <trip id="230" depart="1032.99" from="10" to="7"/>
    <trip id="231" depart="1037.49" from="7" to="8"/>
    <trip id="232" depart="1041.98" from="C7" to="2"/>
    <trip id="233" depart="1046.47" from="5" to="E10"/>
    <trip id="234" depart="1050.96" from="E13" to="10"/>
    <trip id="235" depart="1055.45" from="C1" to="C7"/>
    <trip id="236" depart="1059.94" from="C10" to="5"/>
    <trip id="237" depart="1064.43" from="C10" to="E5"/>
    <trip id="238" depart="1068.92" from="C8" to="E10"/>
    <trip id="239" depart="1073.42" from="E5" to="E2"/>
    <trip id="240" depart="1077.91" from="C0" to="0"/>
    <trip id="241" depart="1082.40" from="9" to="E14"/>
    <trip id="242" depart="1086.89" from="E5" to="E7"/>
    <trip id="243" depart="1091.38" from="C10" to="E14"/>
    <trip id="244" depart="1095.87" from="C7" to="C9"/>
    <trip id="245" depart="1100.36" from="5" to="5"/>
    <trip id="246" depart="1104.86" from="C10" to="0"/>
    <trip id="247" depart="1109.35" from="9" to="E10"/>
    <trip id="248" depart="1113.84" from="C1" to="3"/>
    <trip id="249" depart="1118.33" from="C11" to="2"/>
    <trip id="250" depart="1122.82" from="E0" to="0"/>
    <trip id="251" depart="1127.31" from="C1" to="C8"/>
    <trip id="252" depart="1131.80" from="0" to="E0"/>
    <trip id="253" depart="1136.29" from="2" to="C11"/>
    <trip id="254" depart="1140.79" from="1" to="C0"/>
    <trip id="255" depart="1145.28" from="5" to="9"/>
    <trip id="256" depart="1149.77" from="E2" to="C0"/>
    <trip id="257" depart="1154.26" from="E2" to="E3"/>
    <trip id="258" depart="1158.75" from="6" to="10"/>
    <trip id="259" depart="1163.24" from="0" to="C7"/>
    <trip id="260" depart="1167.73" from="E9" to="9"/>
    <trip id="261" depart="1172.22" from="E1" to="E2"/>
    <trip id="262" depart="1176.72" from="E1" to="E14"/>
    <trip id="263" depart="1181.21" from="E8" to="4"/>
    <trip id="264" depart="1185.70" from="0" to="3"/>
    <trip id="265" depart="1190.19" from="2" to="E1"/>
    <trip id="266" depart="1194.68" from="C8" to="5"/>
    <trip id="267" depart="1199.17" from="E12" to="E2"/>
    <trip id="268" depart="1203.66" from="3" to="C9"/>
    <trip id="269" depart="1208.15" from="E2" to="11"/>
    <trip id="270" depart="1212.65" from="E30" to="E7"/>
    <trip id="271" depart="1217.14" from="11" to="0"/>
    <trip id="272" depart="1221.63" from="8" to="E10"/>
    <trip id="273" depart="1226.12" from="E8" to="C1"/>
    <trip id="274" depart="1230.61" from="E13" to="10"/>
    <trip id="275" depart="1235.10" from="E12" to="E0"/>
    <trip id="276" depart="1239.59" from="11" to="E2"/>
    <trip id="277" depart="1244.08" from="E4" to="C9"/>
    <trip id="278" depart="1248.58" from="2" to="E8"/>
    <trip id="279" depart="1253.07" from="E3" to="9"/>
    <trip id="280" depart="1257.56" from="C10" to="C0"/>
    <trip id="281" depart="1262.05" from="C6" to="9"/>
    <trip id="282" depart="1266.54" from="E4" to="E29"/>
    <trip id="283" depart="1271.03" from="11" to="E7"/>
    <trip id="284" depart="1275.52" from="E0" to="E3"/>
    <trip id="285" depart="1280.02" from="E13" to="C10"/>
    <trip id="286" depart="1284.51" from="E13" to="E7"/>
    <trip id="287" depart="1289.00" from="7" to="E29"/>
    <trip id="288" depart="1293.49" from="C7" to="C2"/>
    <trip id="289" depart="1297.98" from="C10" to="E11"/>
    <trip id="290" depart="1302.47" from="7" to="E3"/>
    <trip id="291" depart="1306.96" from="E4" to="10"/>
    <trip id="292" depart="1311.45" from="E5" to="6"/>
    <trip id="293" depart="1315.95" from="C11" to="C9"/>
    <trip id="294" depart="1320.44" from="C0" to="0"/>
    <trip id="295" depart="1324.93" from="E4" to="4"/>
    <trip id="296" depart="1329.42" from="5" to="E29"/>
    <trip id="297" depart="1333.91" from="9" to="E4"/>
    <trip id="298" depart="1338.40" from="E12" to="7"/>
    <trip id="299" depart="1342.89" from="0" to="E7"/>
    <trip id="300" depart="1347.38" from="10" to="E11"/>
    <trip id="301" depart="1351.88" from="C2" to="E14"/>
    <trip id="302" depart="1356.37" from="E12" to="E0"/>
    <trip id="303" depart="1360.86" from="C2" to="E2"/>
    <trip id="304" depart="1365.35" from="11" to="5"/>
    <trip id="305" depart="1369.84" from="E12" to="8"/>
    <trip id="306" depart="1374.33" from="C8" to="C2"/>
    <trip id="307" depart="1378.82" from="C7" to="C10"/>
    <trip id="308" depart="1383.31" from="E2" to="9"/>
    <trip id="309" depart="1387.81" from="E12" to="7"/>
    <trip id="310" depart="1392.30" from="6" to="2"/>
    <trip id="311" depart="1396.79" from="4" to="2"/>
    <trip id="312" depart="1401.28" from="C7" to="E14"/>
    <trip id="313" depart="1405.77" from="4" to="5"/>
    <trip id="314" depart="1410.26" from="C2" to="E11"/>
    <trip id="315" depart="1414.75" from="E9" to="C6"/>
    <trip id="316" depart="1419.24" from="7" to="11"/>
    <trip id="317" depart="1423.74" from="4" to="5"/>
    <trip id="318" depart="1428.23" from="4" to="0"/>
    <trip id="319" depart="1432.72" from="C7" to="7"/>
    <trip id="320" depart="1437.21" from="E9" to="C7"/>
    <trip id="321" depart="1441.70" from="E12" to="2"/>
    <trip id="322" depart="1446.19" from="E5" to="C2"/>
    <trip id="323" depart="1450.68" from="E5" to="C8"/>
    <trip id="324" depart="1455.18" from="C11" to="C10"/>
    <trip id="325" depart="1459.67" from="4" to="1"/>
    <trip id="326" depart="1464.16" from="E7" to="C2"/>
    <trip id="327" depart="1468.65" from="E30" to="C1"/>
    <trip id="328" depart="1473.14" from="10" to="E0"/>
    <trip id="329" depart="1477.63" from="1" to="3"/>
    <trip id="330" depart="1482.12" from="C8" to="8"/>
    <trip id="331" depart="1486.61" from="E9" to="2"/>
    <trip id="332" depart="1491.11" from="E2" to="C9"/>
    <trip id="333" depart="1495.60" from="E3" to="5"/>
    <trip id="334" depart="1500.09" from="C6" to="C11"/>
    <trip id="335" depart="1504.58" from="C11" to="E4"/>
    <trip id="336" depart="1509.07" from="E9" to="8"/>
    <trip id="337" depart="1513.56" from="E0" to="C9"/>
    <trip id="338" depart="1518.05" from="E2" to="E7"/>
    <trip id="339" depart="1522.54" from="5" to="5"/>
    <trip id="340" depart="1527.04" from="E1" to="3"/>
    <trip id="341" depart="1531.53" from="3" to="10"/>
    <trip id="342" depart="1536.02" from="0" to="C11"/>
    <trip id="343" depart="1540.51" from="C9" to="7"/>
    <trip id="344" depart="1545.00" from="5" to="E11"/>
    <trip id="345" depart="1549.49" from="E12" to="C11"/>
    <trip id="346" depart="1553.98" from="E12" to="E6"/>
    <trip id="347" depart="1558.47" from="E3" to="E0"/>
    <trip id="348" depart="1562.97" from="E1" to="E6"/>
    <trip id="349" depart="1567.46" from="C10" to="C7"/>
    <trip id="350" depart="1571.95" from="E1" to="E5"/>
    <trip id="351" depart="1576.44" from="E4" to="10"/>
    <trip id="352" depart="1580.93" from="3" to="8"/>
    <trip id="353" depart="1585.42" from="E2" to="C8"/>
    <trip id="354" depart="1589.91" from="7" to="2"/>
    <trip id="355" depart="1594.40" from="E12" to="E10"/>
    <trip id="356" depart="1598.90" from="E8" to="C6"/>
    <trip id="357" depart="1603.39" from="C2" to="10"/>
    <trip id="358" depart="1607.88" from="1" to="C10"/>
    <trip id="359" depart="1612.37" from="8" to="6"/>
    <trip id="360" depart="1616.86" from="11" to="E7"/>
    <trip id="361" depart="1621.35" from="E4" to="C8"/>
    <trip id="362" depart="1625.84" from="E8" to="E8"/>
    <trip id="363" depart="1630.34" from="E1" to="7"/>
    <trip id="364" depart="1634.83" from="1" to="E14"/>
    <trip id="365" depart="1639.32" from="C11" to="E1"/>
    <trip id="366" depart="1643.81" from="E7" to="4"/>
    <trip id="367" depart="1648.30" from="C8" to="E0"/>
    <trip id="368" depart="1652.79" from="C2" to="11"/>
    <trip id="369" depart="1657.28" from="9" to="9"/>
    <trip id="370" depart="1661.77" from="E1" to="E4"/>
    <trip id="371" depart="1666.27" from="9" to="E10"/>
    <trip id="372" depart="1670.76" from="7" to="E7"/>
    <trip id="373" depart="1675.25" from="E30" to="C7"/>
    <trip id="374" depart="1679.74" from="C11" to="8"/>
    <trip id="375" depart="1684.23" from="8" to="E7"/>
    <trip id="376" depart="1688.72" from="C1" to="C6"/>
    <trip id="377" depart="1693.21" from="E9" to="E1"/>
    <trip id="378" depart="1697.70" from="C7" to="C10"/>
    <trip id="379" depart="1702.20" from="4" to="C0"/>
    <trip id="380" depart="1706.69" from="E2" to="E0"/>
    <trip id="381" depart="1711.18" from="E2" to="4"/>
    <trip id="382" depart="1715.67" from="C7" to="E6"/>
    <trip id="383" depart="1720.16" from="C10" to="E10"/>
    <trip id="384" depart="1724.65" from="2" to="E8"/>
    <trip id="385" depart="1729.14" from="C9" to="6"/>
    <trip id="386" depart="1733.63" from="3" to="C7"/>
    <trip id="387" depart="1738.13" from="C7" to="11"/>
    <trip id="388" depart="1742.62" from="E9" to="E6"/>
    <trip id="389" depart="1747.11" from="C11" to="11"/>
    <trip id="390" depart="1751.60" from="E4" to="C2"/>
    <trip id="391" depart="1756.09" from="E13" to="C6"/>
    <trip id="392" depart="1760.58" from="7" to="E3"/>
    <trip id="393" depart="1765.07" from="E9" to="6"/>
    <trip id="394" depart="1769.56" from="C7" to="C1"/>
    <trip id="395" depart="1774.06" from="E7" to="C6"/>
    <trip id="396" depart="1778.55" from="E5" to="E4"/>
    <trip id="397" depart="1783.04" from="7" to="E2"/>
    <trip id="398" depart="1787.53" from="C10" to="E6"/>
    <trip id="399" depart="1792.02" from="C6" to="E29"/>
    <trip id="400" depart="1796.51" from="7" to="8"/>
    <trip id="401" depart="1801.00" from="C8" to="E8"/>
    <trip id="402" depart="1805.49" from="C2" to="3"/>
    <trip id="403" depart="1809.99" from="C7" to="9"/>
    <trip id="404" depart="1814.48" from="C7" to="C7"/>
    <trip id="405" depart="1818.97" from="C11" to="8"/>
    <trip id="406" depart="1823.46" from="4" to="E10"/>
    <trip id="407" depart="1827.95" from="C8" to="5"/>
    <trip id="408" depart="1832.44" from="E3" to="1"/>
    <trip id="409" depart="1836.93" from="E2" to="E10"/>
    <trip id="410" depart="1841.43" from="E30" to="C1"/>
    <trip id="411" depart="1845.92" from="E1" to="E29"/>
    <trip id="412" depart="1850.41" from="E9" to="C2"/>
    <trip id="413" depart="1854.90" from="1" to="C6"/>
    <trip id="414" depart="1859.39" from="C9" to="E4"/>
    <trip id="415" depart="1863.88" from="E5" to="C10"/>
    <trip id="416" depart="1868.37" from="C6" to="C11"/>
    <trip id="417" depart="1872.86" from="E13" to="C1"/>
    <trip id="418" depart="1877.36" from="E1" to="3"/>
    <trip id="419" depart="1881.85" from="C11" to="E7"/>
    <trip id="420" depart="1886.34" from="9" to="E10"/>
    <trip id="421" depart="1890.83" from="E1" to="E3"/>
    <trip id="422" depart="1895.32" from="E4" to="E4"/>
    <trip id="423" depart="1899.81" from="C0" to="8"/>
    <trip id="424" depart="1904.30" from="E13" to="E14"/>
    <trip id="425" depart="1908.79" from="E5" to="1"/>
    <trip id="426" depart="1913.29" from="10" to="E0"/>
    <trip id="427" depart="1917.78" from="E7" to="E8"/>
    <trip id="428" depart="1922.27" from="E2" to="C10"/>
    <trip id="429" depart="1926.76" from="11" to="E0"/>
    <trip id="430" depart="1931.25" from="E5" to="C11"/>
    <trip id="431" depart="1935.74" from="E12" to="E5"/>
    <trip id="432" depart="1940.23" from="1" to="E29"/>
    <trip id="433" depart="1944.72" from="7" to="C0"/>
    <trip id="434" depart="1949.22" from="2" to="C7"/>
    <trip id="435" depart="1953.71" from="C8" to="E2"/>
    <trip id="436" depart="1958.20" from="3" to="10"/>
    <trip id="437" depart="1962.69" from="E5" to="E0"/>
    <trip id="438" depart="1967.18" from="6" to="E6"/>
    <trip id="439" depart="1971.67" from="2" to="C11"/>
    <trip id="440" depart="1976.16" from="6" to="6"/>
    <trip id="441" depart="1980.65" from="0" to="E29"/>
    <trip id="442" depart="1985.15" from="E6" to="E10"/>
    <trip id="443" depart="1989.64" from="3" to="C11"/>
    <trip id="444" depart="1994.13" from="9" to="C8"/>
    <trip id="445" depart="1998.62" from="E0" to="C10"/>
    <trip id="446" depart="2003.11" from="6" to="E3"/>
    <trip id="447" depart="2007.60" from="4" to="C1"/>
    <trip id="448" depart="2012.09" from="C2" to="6"/>
    <trip id="449" depart="2016.59" from="C8" to="C8"/>
    <trip id="450" depart="2021.08" from="E9" to="8"/>
    <trip id="451" depart="2025.57" from="E9" to="E1"/>
    <trip id="452" depart="2030.06" from="7" to="C8"/>
    <trip id="453" depart="2034.55" from="E12" to="E14"/>
    <trip id="454" depart="2039.04" from="1" to="C9"/>
    <trip id="455" depart="2043.53" from="C2" to="E5"/>
    <trip id="456" depart="2048.02" from="7" to="E29"/>
    <trip id="457" depart="2052.52" from="C9" to="9"/>
    <trip id="458" depart="2057.01" from="E0" to="E0"/>
    <trip id="459" depart="2061.50" from="E12" to="E11"/>
    <trip id="460" depart="2065.99" from="E1" to="E3"/>
    <trip id="461" depart="2070.48" from="E0" to="E5"/>
    <trip id="462" depart="2074.97" from="E0" to="8"/>
    <trip id="463" depart="2079.46" from="C10" to="C8"/>
    <trip id="464" depart="2083.95" from="E13" to="11"/>
    <trip id="465" depart="2088.45" from="8" to="E14"/>
    <trip id="466" depart="2092.94" from="3" to="2"/>
    <trip id="467" depart="2097.43" from="C7" to="E8"/>
    <trip id="468" depart="2101.92" from="C7" to="E6"/>
    <trip id="469" depart="2106.41" from="E4" to="6"/>
    <trip id="470" depart="2110.90" from="E4" to="C2"/>
    <trip id="471" depart="2115.39" from="E30" to="E14"/>
    <trip id="472" depart="2119.88" from="9" to="11"/>
    <trip id="473" depart="2124.38" from="E8" to="2"/>
    <trip id="474" depart="2128.87" from="E8" to="E4"/>
    <trip id="475" depart="2133.36" from="E13" to="E8"/>
    <trip id="476" depart="2137.85" from="E8" to="E29"/>
    <trip id="477" depart="2142.34" from="C0" to="E2"/>
    <trip id="478" depart="2146.83" from="0" to="C7"/>
    <trip id="479" depart="2151.32" from="C11" to="E1"/>
    <trip id="480" depart="2155.81" from="E1" to="C8"/>
    <trip id="481" depart="2160.31" from="E30" to="E6"/>
    <trip id="482" depart="2164.80" from="11" to="5"/>
    <trip id="483" depart="2169.29" from="0" to="E5"/>
    <trip id="484" depart="2173.78" from="C8" to="E6"/>
    <trip id="485" depart="2178.27" from="5" to="10"/>
    <trip id="486" depart="2182.76" from="E4" to="E5"/>
    <trip id="487" depart="2187.25" from="8" to="C1"/>
    <trip id="488" depart="2191.75" from="2" to="E7"/>
    <trip id="489" depart="2196.24" from="8" to="C2"/>
    <trip id="490" depart="2200.73" from="11" to="E5"/>
    <trip id="491" depart="2205.22" from="2" to="C11"/>
    <trip id="492" depart="2209.71" from="E1" to="E14"/>
    <trip id="493" depart="2214.20" from="E8" to="C10"/>
    <trip id="494" depart="2218.69" from="E2" to="3"/>
    <trip id="495" depart="2223.18" from="C10" to="11"/>
    <trip id="496" depart="2227.68" from="C2" to="C1"/>
    <trip id="497" depart="2232.17" from="E8" to="1"/>
    <trip id="498" depart="2236.66" from="C0" to="C11"/>
    <trip id="499" depart="2241.15" from="E8" to="E4"/>
    <trip id="500" depart="2245.64" from="11" to="E10"/>
    <trip id="501" depart="2250.13" from="C7" to="E8"/>
    <trip id="502" depart="2254.62" from="C0" to="C1"/>
    <trip id="503" depart="2259.11" from="4" to="2"/>
    <trip id="504" depart="2263.61" from="E4" to="C11"/>
    <trip id="505" depart="2268.10" from="E1" to="E0"/>
    <trip id="506" depart="2272.59" from="C9" to="0"/>
    <trip id="507" depart="2277.08" from="E3" to="6"/>
    <trip id="508" depart="2281.57" from="2" to="C8"/>
    <trip id="509" depart="2286.06" from="10" to="E2"/>
    <trip id="510" depart="2290.55" from="5" to="5"/>
    <trip id="511" depart="2295.04" from="E5" to="9"/>
    <trip id="512" depart="2299.54" from="3" to="E5"/>
    <trip id="513" depart="2304.03" from="0" to="E4"/>
    <trip id="514" depart="2308.52" from="2" to="2"/>
    <trip id="515" depart="2313.01" from="6" to="3"/>
    <trip id="516" depart="2317.50" from="E1" to="0"/>
    <trip id="517" depart="2321.99" from="0" to="E2"/>
    <trip id="518" depart="2326.48" from="6" to="9"/>
    <trip id="519" depart="2330.97" from="3" to="1"/>
    <trip id="520" depart="2335.47" from="E2" to="C6"/>
    <trip id="521" depart="2339.96" from="E2" to="C2"/>
    <trip id="522" depart="2344.45" from="E3" to="C6"/>
    <trip id="523" depart="2348.94" from="11" to="C6"/>
    <trip id="524" depart="2353.43" from="E8" to="1"/>
    <trip id="525" depart="2357.92" from="E3" to="E4"/>
    <trip id="526" depart="2362.41" from="C6" to="C11"/>
    <trip id="527" depart="2366.91" from="E8" to="10"/>
    <trip id="528" depart="2371.40" from="C2" to="C1"/>
    <trip id="529" depart="2375.89" from="E12" to="C2"/>
    <trip id="530" depart="2380.38" from="E6" to="10"/>
    <trip id="531" depart="2384.87" from="10" to="C9"/>
    <trip id="532" depart="2389.36" from="10" to="7"/>
    <trip id="533" depart="2393.85" from="E0" to="C7"/>
    <trip id="534" depart="2398.34" from="9" to="E8"/>
    <trip id="535" depart="2402.84" from="C7" to="C11"/>