<?xml version="1.0" encoding="UTF-8"?>

<!-- generated on 2024-06-23 16:21:57.505747 by randomtrips.py v1_14_1+0000-f654d7b963e
<configuration>
    <end value="3000"/>
    <insertion-density value="100.0"/>
    <net-file value="wang2020/sumo/ring.net.xml"/>
    <route-file value="wang2020/sumo/traffic100.rou.xml"/>
</configuration>
-->

<routes xmlns:xsi="http://www.w3.org/2001/XMLSchema-instance" xsi:noNamespaceSchemaLocation="http://sumo.dlr.de/xsd/routes_file.xsd">
    <trip id="0" depart="0.00" from="E13" to="0"/>
    <trip id="1" depart="1.86" from="4" to="3"/>
    <trip id="2" depart="3.73" from="E3" to="E14"/>
    <trip id="3" depart="5.59" from="E7" to="10"/>
    <trip id="4" depart="7.45" from="8" to="0"/>
    <trip id="5" depart="9.31" from="3" to="E0"/>
    <trip id="6" depart="11.18" from="0" to="2"/>
    <trip id="7" depart="13.04" from="E13" to="E1"/>
    <trip id="8" depart="14.90" from="3" to="E10"/>
    <trip id="9" depart="16.76" from="E5" to="0"/>
    <trip id="10" depart="18.63" from="E5" to="E14"/>
    <trip id="11" depart="20.49" from="6" to="11"/>
    <trip id="12" depart="22.35" from="E8" to="6"/>
    <trip id="13" depart="24.21" from="10" to="10"/>
    <trip id="14" depart="26.08" from="E6" to="E10"/>
    <trip id="15" depart="27.94" from="E5" to="E2"/>
    <trip id="16" depart="29.80" from="E0" to="E8"/>
    <trip id="17" depart="31.66" from="7" to="E1"/>
    <trip id="18" depart="33.53" from="E5" to="E10"/>
    <trip id="19" depart="35.39" from="E6" to="E1"/>
    <trip id="20" depart="37.25" from="E2" to="1"/>
    <trip id="21" depart="39.11" from="3" to="4"/>
    <trip id="22" depart="40.98" from="1" to="3"/>
    <trip id="23" depart="42.84" from="10" to="4"/>
    <trip id="24" depart="44.70" from="E13" to="6"/>
    <trip id="25" depart="46.56" from="6" to="3"/>
    <trip id="26" depart="48.43" from="4" to="E7"/>
    <trip id="27" depart="50.29" from="E13" to="E10"/>
    <trip id="28" depart="52.15" from="2" to="E2"/>
    <trip id="29" depart="54.02" from="11" to="7"/>
    <trip id="30" depart="55.88" from="E9" to="E11"/>
    <trip id="31" depart="57.74" from="E1" to="E14"/>
    <trip id="32" depart="59.60" from="E6" to="E3"/>
    <trip id="33" depart="61.47" from="3" to="0"/>
    <trip id="34" depart="63.33" from="5" to="4"/>
    <trip id="35" depart="65.19" from="3" to="E7"/>
    <trip id="36" depart="67.05" from="E7" to="5"/>
    <trip id="37" depart="68.92" from="E13" to="7"/>
    <trip id="38" depart="70.78" from="E7" to="9"/>
    <trip id="39" depart="72.64" from="4" to="3"/>
    <trip id="40" depart="74.50" from="E1" to="4"/>
    <trip id="41" depart="76.37" from="E12" to="E6"/>
    <trip id="42" depart="78.23" from="7" to="3"/>
    <trip id="43" depart="80.09" from="E9" to="E0"/>
    <trip id="44" depart="81.95" from="10" to="1"/>
    <trip id="45" depart="83.82" from="10" to="E11"/>
    <trip id="46" depart="85.68" from="E5" to="8"/>
    <trip id="47" depart="87.54" from="1" to="7"/>
    <trip id="48" depart="89.40" from="E9" to="E0"/>
    <trip id="49" depart="91.27" from="E9" to="E5"/>
    <trip id="50" depart="93.13" from="0" to="E2"/>
    <trip id="51" depart="94.99" from="E2" to="E0"/>
    <trip id="52" depart="96.85" from="4" to="E11"/>
    <trip id="53" depart="98.72" from="10" to="8"/>
    <trip id="54" depart="100.58" from="8" to="E7"/>
    <trip id="55" depart="102.44" from="E7" to="4"/>
    <trip id="56" depart="104.30" from="E0" to="2"/>
    <trip id="57" depart="106.17" from="E7" to="E5"/>
    <trip id="58" depart="108.03" from="5" to="E11"/>
    <trip id="59" depart="109.89" from="E12" to="11"/>
    <trip id="60" depart="111.76" from="E4" to="E0"/>
    <trip id="61" depart="113.62" from="E4" to="E0"/>
    <trip id="62" depart="115.48" from="0" to="5"/>
    <trip id="63" depart="117.34" from="0" to="E7"/>
    <trip id="64" depart="119.21" from="E7" to="E4"/>
    <trip id="65" depart="121.07" from="5" to="1"/>
    <trip id="66" depart="122.93" from="E7" to="E7"/>
    <trip id="67" depart="124.79" from="10" to="9"/>
    <trip id="68" depart="126.66" from="1" to="E3"/>
    <trip id="69" depart="128.52" from="E4" to="11"/>
    <trip id="70" depart="130.38" from="9" to="E1"/>
    <trip id="71" depart="132.24" from="4" to="E5"/>
    <trip id="72" depart="134.11" from="8" to="3"/>
    <trip id="73" depart="135.97" from="E0" to="E2"/>
    <trip id="74" depart="137.83" from="2" to="5"/>
    <trip id="75" depart="139.69" from="E9" to="E11"/>
    <trip id="76" depart="141.56" from="8" to="E0"/>
    <trip id="77" depart="143.42" from="10" to="3"/>
    <trip id="78" depart="145.28" from="6" to="E10"/>
    <trip id="79" depart="147.14" from="3" to="3"/>
    <trip id="80" depart="149.01" from="1" to="E11"/>
    <trip id="81" depart="150.87" from="3" to="E6"/>
    <trip id="82" depart="152.73" from="E6" to="1"/>
    <trip id="83" depart="154.59" from="3" to="E14"/>
    <trip id="84" depart="156.46" from="3" to="11"/>
    <trip id="85" depart="158.32" from="E8" to="E1"/>
    <trip id="86" depart="160.18" from="9" to="E3"/>
    <trip id="87" depart="162.05" from="E5" to="2"/>
    <trip id="88" depart="163.91" from="10" to="8"/>
    <trip id="89" depart="165.77" from="8" to="9"/>
    <trip id="90" depart="167.63" from="E3" to="E14"/>
    <trip id="91" depart="169.50" from="E9" to="10"/>
    <trip id="92" depart="171.36" from="7" to="6"/>
    <trip id="93" depart="173.22" from="E6" to="3"/>
    <trip id="94" depart="175.08" from="2" to="8"/>
    <trip id="95" depart="176.95" from="8" to="4"/>
    <trip id="96" depart="178.81" from="3" to="E7"/>
    <trip id="97" depart="180.67" from="8" to="E5"/>
    <trip id="98" depart="182.53" from="E1" to="1"/>
    <trip id="99" depart="184.40" from="E9" to="E5"/>
    <trip id="100" depart="186.26" from="E9" to="E7"/>
    <trip id="101" depart="188.12" from="E6" to="11"/>
    <trip id="102" depart="189.98" from="9" to="3"/>
    <trip id="103" depart="191.85" from="7" to="1"/>
    <trip id="104" depart="193.71" from="7" to="E8"/>
    <trip id="105" depart="195.57" from="4" to="E3"/>
    <trip id="106" depart="197.43" from="8" to="8"/>
    <trip id="107" depart="199.30" from="E8" to="E8"/>
    <trip id="108" depart="201.16" from="E1" to="E2"/>
    <trip id="109" depart="203.02" from="11" to="5"/>
    <trip id="110" depart="204.88" from="E9" to="E1"/>
    <trip id="111" depart="206.75" from="E1" to="E2"/>
    <trip id="112" depart="208.61" from="1" to="E10"/>
    <trip id="113" depart="210.47" from="E0" to="E5"/>
    <trip id="114" depart="212.33" from="11" to="E8"/>
    <trip id="115" depart="214.20" from="1" to="2"/>
    <trip id="116" depart="216.06" from="E12" to="E14"/>
    <trip id="117" depart="217.92" from="3" to="10"/>
    <trip id="118" depart="219.79" from="E7" to="3"/>
    <trip id="119" depart="221.65" from="E12" to="E10"/>
    <trip id="120" depart="223.51" from="8" to="E10"/>
    <trip id="121" depart="225.37" from="E0" to="E7"/>
    <trip id="122" depart="227.24" from="2" to="E2"/>
    <trip id="123" depart="229.10" from="3" to="7"/>
    <trip id="124" depart="230.96" from="E2" to="5"/>
    <trip id="125" depart="232.82" from="5" to="E3"/>
    <trip id="126" depart="234.69" from="1" to="8"/>
    <trip id="127" depart="236.55" from="E9" to="E8"/>
    <trip id="128" depart="238.41" from="1" to="3"/>
    <trip id="129" depart="240.27" from="4" to="E7"/>
    <trip id="130" depart="242.14" from="E7" to="E6"/>
    <trip id="131" depart="244.00" from="6" to="11"/>
    <trip id="132" depart="245.86" from="E6" to="E14"/>
    <trip id="133" depart="247.72" from="E12" to="E8"/>
    <trip id="134" depart="249.59" from="E13" to="0"/>
    <trip id="135" depart="251.45" from="E5" to="5"/>
    <trip id="136" depart="253.31" from="E13" to="E7"/>
    <trip id="137" depart="255.17" from="11" to="10"/>
    <trip id="138" depart="257.04" from="10" to="E1"/>
    <trip id="139" depart="258.90" from="4" to="E10"/>
    <trip id="140" depart="260.76" from="E3" to="2"/>
    <trip id="141" depart="262.62" from="E13" to="4"/>
    <trip id="142" depart="264.49" from="9" to="E6"/>
    <trip id="143" depart="266.35" from="E6" to="10"/>
    <trip id="144" depart="268.21" from="8" to="4"/>
    <trip id="145" depart="270.08" from="0" to="E3"/>
    <trip id="146" depart="271.94" from="E13" to="4"/>
    <trip id="147" depart="273.80" from="E3" to="E1"/>
    <trip id="148" depart="275.66" from="8" to="0"/>
    <trip id="149" depart="277.53" from="1" to="E6"/>
    <trip id="150" depart="279.39" from="E7" to="E1"/>
    <trip id="151" depart="281.25" from="E6" to="E1"/>
    <trip id="152" depart="283.11" from="11" to="11"/>
    <trip id="153" depart="284.98" from="5" to="E6"/>
    <trip id="154" depart="286.84" from="E5" to="E5"/>
    <trip id="155" depart="288.70" from="E7" to="3"/>
    <trip id="156" depart="290.56" from="3" to="10"/>
    <trip id="157" depart="292.43" from="E4" to="E6"/>
    <trip id="158" depart="294.29" from="7" to="E10"/>
    <trip id="159" depart="296.15" from="11" to="E7"/>
    <trip id="160" depart="298.01" from="E6" to="E8"/>
    <trip id="161" depart="299.88" from="E5" to="E6"/>
    <trip id="162" depart="301.74" from="0" to="E2"/>
    <trip id="163" depart="303.60" from="5" to="E7"/>
    <trip id="164" depart="305.46" from="E5" to="E5"/>
    <trip id="165" depart="307.33" from="E5" to="4"/>
    <trip id="166" depart="309.19" from="E4" to="10"/>
    <trip id="167" depart="311.05" from="E6" to="E5"/>
    <trip id="168" depart="312.91" from="3" to="E4"/>
    <trip id="169" depart="314.78" from="9" to="5"/>
    <trip id="170" depart="316.64" from="E5" to="3"/>
    <trip id="171" depart="318.50" from="0" to="2"/>
    <trip id="172" depart="320.36" from="5" to="E5"/>
    <trip id="173" depart="322.23" from="E9" to="4"/>
    <trip id="174" depart="324.09" from="E13" to="7"/>
    <trip id="175" depart="325.95" from="E9" to="E0"/>
    <trip id="176" depart="327.82" from="E8" to="10"/>
    <trip id="177" depart="329.68" from="E9" to="2"/>
    <trip id="178" depart="331.54" from="E9" to="4"/>
    <trip id="179" depart="333.40" from="10" to="8"/>
    <trip id="180" depart="335.27" from="E3" to="5"/>
    <trip id="181" depart="337.13" from="E12" to="E0"/>
    <trip id="182" depart="338.99" from="7" to="E1"/>
    <trip id="183" depart="340.85" from="4" to="E2"/>
    <trip id="184" depart="342.72" from="0" to="E7"/>
    <trip id="185" depart="344.58" from="E0" to="E2"/>
    <trip id="186" depart="346.44" from="E3" to="E14"/>
    <trip id="187" depart="348.30" from="6" to="1"/>
    <trip id="188" depart="350.17" from="E13" to="5"/>
    <trip id="189" depart="352.03" from="5" to="E5"/>
    <trip id="190" depart="353.89" from="E3" to="5"/>
    <trip id="191" depart="355.75" from="5" to="7"/>
    <trip id="192" depart="357.62" from="7" to="5"/>
    <trip id="193" depart="359.48" from="11" to="8"/>
    <trip id="194" depart="361.34" from="E8" to="E14"/>
    <trip id="195" depart="363.20" from="E7" to="E10"/>
    <trip id="196" depart="365.07" from="5" to="E1"/>
    <trip id="197" depart="366.93" from="0" to="4"/>
    <trip id="198" depart="368.79" from="8" to="E1"/>
    <trip id="199" depart="370.65" from="E13" to="9"/>
    <trip id="200" depart="372.52" from="8" to="3"/>
    <trip id="201" depart="374.38" from="9" to="E6"/>
    <trip id="202" depart="376.24" from="E5" to="2"/>
    <trip id="203" depart="378.11" from="10" to="E0"/>
    <trip id="204" depart="379.97" from="E13" to="6"/>
    <trip id="205" depart="381.83" from="E5" to="E3"/>
    <trip id="206" depart="383.69" from="E2" to="3"/>
    <trip id="207" depart="385.56" from="2" to="0"/>
    <trip id="208" depart="387.42" from="3" to="9"/>
    <trip id="209" depart="389.28" from="E6" to="1"/>
    <trip id="210" depart="391.14" from="7" to="E11"/>
    <trip id="211" depart="393.01" from="2" to="E14"/>
    <trip id="212" depart="394.87" from="9" to="3"/>
    <trip id="213" depart="396.73" from="E13" to="0"/>
    <trip id="214" depart="398.59" from="E4" to="E3"/>
    <trip id="215" depart="400.46" from="10" to="8"/>
    <trip id="216" depart="402.32" from="2" to="E7"/>
    <trip id="217" depart="404.18" from="E0" to="1"/>
    <trip id="218" depart="406.04" from="3" to="E5"/>
    <trip id="219" depart="407.91" from="8" to="E4"/>
    <trip id="220" depart="409.77" from="E2" to="E8"/>
    <trip id="221" depart="411.63" from="E12" to="E7"/>
    <trip id="222" depart="413.49" from="E7" to="E10"/>
    <trip id="223" depart="415.36" from="E3" to="E0"/>
    <trip id="224" depart="417.22" from="E5" to="E1"/>
    <trip id="225" depart="419.08" from="E7" to="E2"/>
    <trip id="226" depart="420.94" from="9" to="4"/>
    <trip id="227" depart="422.81" from="3" to="E11"/>
    <trip id="228" depart="424.67" from="E4" to="E0"/>
    <trip id="229" depart="426.53" from="E13" to="4"/>
    <trip id="230" depart="428.39" from="1" to="4"/>
    <trip id="231" depart="430.26" from="4" to="5"/>
    <trip id="232" depart="432.12" from="E0" to="11"/>
    <trip id="233" depart="433.98" from="3" to="E14"/>
    <trip id="234" depart="435.85" from="E2" to="1"/>
    <trip id="235" depart="437.71" from="7" to="E1"/>
    <trip id="236" depart="439.57" from="7" to="2"/>
    <trip id="237" depart="441.43" from="8" to="E6"/>
    <trip id="238" depart="443.30" from="E12" to="E14"/>
    <trip id="239" depart="445.16" from="E6" to="E3"/>
    <trip id="240" depart="447.02" from="7" to="0"/>
    <trip id="241" depart="448.88" from="6" to="E3"/>
    <trip id="242" depart="450.75" from="E6" to="E7"/>
    <trip id="243" depart="452.61" from="8" to="E2"/>
    <trip id="244" depart="454.47" from="E1" to="E10"/>
    <trip id="245" depart="456.33" from="3" to="3"/>
    <trip id="246" depart="458.20" from="8" to="0"/>
    <trip id="247" depart="460.06" from="6" to="E14"/>
    <trip id="248" depart="461.92" from="7" to="11"/>
    <trip id="249" depart="463.78" from="9" to="11"/>
    <trip id="250" depart="465.65" from="E12" to="0"/>
    <trip id="251" depart="467.51" from="7" to="E1"/>
    <trip id="252" depart="469.37" from="0" to="E11"/>
    <trip id="253" depart="471.23" from="11" to="9"/>
    <trip id="254" depart="473.10" from="1" to="7"/>
    <trip id="255" depart="474.96" from="3" to="5"/>
    <trip id="256" depart="476.82" from="E4" to="7"/>
    <trip id="257" depart="478.68" from="E4" to="E4"/>
    <trip id="258" depart="480.55" from="4" to="1"/>
    <trip id="259" depart="482.41" from="0" to="E0"/>
    <trip id="260" depart="484.27" from="E9" to="6"/>
    <trip id="261" depart="486.14" from="E13" to="E3"/>
    <trip id="262" depart="488.00" from="E13" to="E3"/>
    <trip id="263" depart="489.86" from="E8" to="2"/>
    <trip id="264" depart="491.72" from="0" to="11"/>
    <trip id="265" depart="493.59" from="11" to="E14"/>
    <trip id="266" depart="495.45" from="E1" to="3"/>
    <trip id="267" depart="497.31" from="E2" to="E3"/>
    <trip id="268" depart="499.17" from="2" to="E10"/>
    <trip id="269" depart="501.04" from="E3" to="10"/>
    <trip id="270" depart="502.90" from="E5" to="E8"/>
    <trip id="271" depart="504.76" from="10" to="0"/>
    <trip id="272" depart="506.62" from="5" to="E14"/>
    <trip id="273" depart="508.49" from="E8" to="7"/>
    <trip id="274" depart="510.35" from="E3" to="1"/>
    <trip id="275" depart="512.21" from="E2" to="E11"/>
    <trip id="276" depart="514.07" from="10" to="E3"/>
    <trip id="277" depart="515.94" from="E6" to="E10"/>
    <trip id="278" depart="517.80" from="10" to="E8"/>
    <trip id="279" depart="519.66" from="E4" to="6"/>
    <trip id="280" depart="521.52" from="8" to="6"/>
    <trip id="281" depart="523.39" from="E0" to="6"/>
    <trip id="282" depart="525.25" from="E6" to="E4"/>
    <trip id="283" depart="527.11" from="10" to="E8"/>
    <trip id="284" depart="528.97" from="E13" to="E4"/>
    <trip id="285" depart="530.84" from="E2" to="8"/>
    <trip id="286" depart="532.70" from="E3" to="E8"/>
    <trip id="287" depart="534.56" from="4" to="E4"/>
    <trip id="288" depart="536.42" from="E0" to="9"/>
    <trip id="289" depart="538.29" from="8" to="E2"/>
    <trip id="290" depart="540.15" from="4" to="E5"/>
    <trip id="291" depart="542.01" from="E5" to="10"/>
    <trip id="292" depart="543.88" from="E7" to="3"/>
    <trip id="293" depart="545.74" from="9" to="E10"/>
    <trip id="294" depart="547.60" from="7" to="0"/>
    <trip id="295" depart="549.46" from="E6" to="2"/>
    <trip id="296" depart="551.33" from="3" to="E4"/>
    <trip id="297" depart="553.19" from="6" to="E6"/>
    <trip id="298" depart="555.05" from="E2" to="4"/>
    <trip id="299" depart="556.91" from="0" to="E7"/>
    <trip id="300" depart="558.78" from="10" to="E2"/>
    <trip id="301" depart="560.64" from="9" to="E3"/>
    <trip id="302" depart="562.50" from="E2" to="E11"/>
    <trip id="303" depart="564.36" from="9" to="E4"/>
    <trip id="304" depart="566.23" from="10" to="3"/>
    <trip id="305" depart="568.09" from="E2" to="5"/>
    <trip id="306" depart="569.95" from="E1" to="9"/>
    <trip id="307" depart="571.81" from="E0" to="8"/>
    <trip id="308" depart="573.68" from="E3" to="5"/>
    <trip id="309" depart="575.54" from="E2" to="4"/>
    <trip id="310" depart="577.40" from="4" to="10"/>
    <trip id="311" depart="579.26" from="2" to="10"/>
    <trip id="312" depart="581.13" from="E0" to="E3"/>
    <trip id="313" depart="582.99" from="2" to="3"/>
    <trip id="314" depart="584.85" from="9" to="E2"/>
    <trip id="315" depart="586.71" from="E9" to="E0"/>
    <trip id="316" depart="588.58" from="4" to="10"/>
    <trip id="317" depart="590.44" from="2" to="3"/>
    <trip id="318" depart="592.30" from="2" to="0"/>
    <trip id="319" depart="594.17" from="E0" to="4"/>
    <trip id="320" depart="596.03" from="E9" to="E1"/>
    <trip id="321" depart="597.89" from="E2" to="11"/>
    <trip id="322" depart="599.75" from="E6" to="9"/>
    <trip id="323" depart="601.62" from="E6" to="E1"/>
    <trip id="324" depart="603.48" from="9" to="8"/>
    <trip id="325" depart="605.34" from="2" to="1"/>
    <trip id="326" depart="607.20" from="E8" to="9"/>
    <trip id="327" depart="609.07" from="E5" to="7"/>
    <trip id="328" depart="610.93" from="1" to="E11"/>
    <trip id="329" depart="612.79" from="1" to="11"/>
    <trip id="330" depart="614.65" from="E1" to="5"/>
    <trip id="331" depart="616.52" from="E9" to="10"/>
    <trip id="332" depart="618.38" from="E4" to="E10"/>
    <trip id="333" depart="620.24" from="E4" to="3"/>
    <trip id="334" depart="622.10" from="E0" to="8"/>
    <trip id="335" depart="623.97" from="8" to="E5"/>
    <trip id="336" depart="625.83" from="E9" to="5"/>
    <trip id="337" depart="627.69" from="E12" to="E10"/>
    <trip id="338" depart="629.55" from="E3" to="E7"/>
    <trip id="339" depart="631.42" from="2" to="3"/>
    <trip id="340" depart="633.28" from="E13" to="11"/>
    <trip id="341" depart="635.14" from="2" to="1"/>
    <trip id="342" depart="637.00" from="0" to="8"/>
    <trip id="343" depart="638.87" from="E12" to="4"/>
    <trip id="344" depart="640.73" from="3" to="E14"/>
    <trip id="345" depart="642.59" from="E2" to="8"/>
    <trip id="346" depart="644.45" from="E2" to="E7"/>
    <trip id="347" depart="646.32" from="E4" to="E11"/>
    <trip id="348" depart="648.18" from="E13" to="E7"/>
    <trip id="349" depart="650.04" from="8" to="E1"/>
    <trip id="350" depart="651.91" from="E13" to="E6"/>
    <trip id="351" depart="653.77" from="E5" to="1"/>
    <trip id="352" depart="655.63" from="11" to="5"/>
    <trip id="353" depart="657.49" from="E3" to="E1"/>
    <trip id="354" depart="659.36" from="4" to="10"/>
    <trip id="355" depart="661.22" from="E2" to="E14"/>
    <trip id="356" depart="663.08" from="E8" to="E0"/>
    <trip id="357" depart="664.94" from="9" to="1"/>
    <trip id="358" depart="666.81" from="0" to="8"/>
    <trip id="359" depart="668.67" from="5" to="4"/>
    <trip id="360" depart="670.53" from="10" to="E8"/>
    <trip id="361" depart="672.39" from="E6" to="E1"/>
    <trip id="362" depart="674.26" from="E8" to="E8"/>
    <trip id="363" depart="676.12" from="E2" to="4"/>
    <trip id="364" depart="677.98" from="0" to="E3"/>
    <trip id="365" depart="679.84" from="9" to="E11"/>
    <trip id="366" depart="681.71" from="E7" to="2"/>
    <trip id="367" depart="683.57" from="E12" to="E11"/>
    <trip id="368" depart="685.43" from="9" to="10"/>
    <trip id="369" depart="687.29" from="6" to="5"/>
    <trip id="370" depart="689.16" from="E2" to="E5"/>
    <trip id="371" depart="691.02" from="5" to="E14"/>
    <trip id="372" depart="692.88" from="4" to="E7"/>
    <trip id="373" depart="694.74" from="E5" to="E1"/>
    <trip id="374" depart="696.61" from="8" to="5"/>
    <trip id="375" depart="698.47" from="5" to="E8"/>
    <trip id="376" depart="700.33" from="7" to="E0"/>
    <trip id="377" depart="702.20" from="E9" to="E11"/>
    <trip id="378" depart="704.06" from="E1" to="7"/>
    <trip id="379" depart="705.92" from="2" to="6"/>
    <trip id="380" depart="707.78" from="E4" to="E11"/>
    <trip id="381" depart="709.65" from="E4" to="2"/>
    <trip id="382" depart="711.51" from="E1" to="E7"/>
    <trip id="383" depart="713.37" from="8" to="E14"/>
    <trip id="384" depart="715.23" from="10" to="E8"/>
    <trip id="385" depart="717.10" from="E12" to="3"/>
    <trip id="386" depart="718.96" from="11" to="E1"/>
    <trip id="387" depart="720.82" from="E1" to="10"/>
    <trip id="388" depart="722.68" from="E9" to="E6"/>
    <trip id="389" depart="724.55" from="9" to="10"/>
    <trip id="390" depart="726.41" from="E5" to="9"/>
    <trip id="391" depart="728.27" from="E3" to="E0"/>
    <trip id="392" depart="730.13" from="4" to="E5"/>
    <trip id="393" depart="732.00" from="E9" to="3"/>
    <trip id="394" depart="733.86" from="E1" to="7"/>
    <trip id="395" depart="735.72" from="E8" to="E0"/>
    <trip id="396" depart="737.58" from="E7" to="E5"/>
    <trip id="397" depart="739.45" from="4" to="E3"/>
    <trip id="398" depart="741.31" from="7" to="E7"/>
    <trip id="399" depart="743.17" from="E0" to="E4"/>
    <trip id="400" depart="745.03" from="4" to="5"/>
    <trip id="401" depart="746.90" from="E12" to="E8"/>
    <trip id="402" depart="748.76" from="9" to="11"/>
    <trip id="403" depart="750.62" from="E0" to="6"/>
    <trip id="404" depart="752.49" from="E1" to="E1"/>
    <trip id="405" depart="754.35" from="8" to="5"/>
    <trip id="406" depart="756.21" from="2" to="E14"/>
    <trip id="407" depart="758.07" from="E1" to="3"/>
    <trip id="408" depart="759.94" from="E4" to="1"/>
    <trip id="409" depart="761.80" from="E3" to="E14"/>
    <trip id="410" depart="763.66" from="E5" to="7"/>
    <trip id="411" depart="765.52" from="E13" to="E4"/>
    <trip id="412" depart="767.39" from="E9" to="9"/>
    <trip id="413" depart="769.25" from="0" to="E0"/>
    <trip id="414" depart="771.11" from="E12" to="E5"/>
    <trip id="415" depart="772.97" from="E6" to="8"/>
    <trip id="416" depart="774.84" from="E0" to="8"/>
    <trip id="417" depart="776.70" from="E3" to="7"/>
    <trip id="418" depart="778.56" from="E13" to="11"/>
    <trip id="419" depart="780.42" from="9" to="E8"/>
    <trip id="420" depart="782.29" from="6" to="E14"/>
    <trip id="421" depart="784.15" from="E13" to="E5"/>
    <trip id="422" depart="786.01" from="E6" to="E5"/>
    <trip id="423" depart="787.87" from="7" to="5"/>
    <trip id="424" depart="789.74" from="E3" to="E3"/>
    <trip id="425" depart="791.60" from="E6" to="0"/>
    <trip id="426" depart="793.46" from="1" to="E11"/>
    <trip id="427" depart="795.32" from="E8" to="E8"/>
    <trip id="428" depart="797.19" from="E3" to="8"/>
    <trip id="429" depart="799.05" from="10" to="E11"/>
    <trip id="430" depart="800.91" from="E6" to="8"/>
    <trip id="431" depart="802.77" from="E2" to="E6"/>
    <trip id="432" depart="804.64" from="1" to="E4"/>
    <trip id="433" depart="806.50" from="5" to="6"/>
    <trip id="434" depart="808.36" from="11" to="E0"/>
    <trip id="435" depart="810.23" from="E1" to="E4"/>
    <trip id="436" depart="812.09" from="2" to="1"/>
    <trip id="437" depart="813.95" from="E6" to="E10"/>
    <trip id="438" depart="815.81" from="3" to="E6"/>
    <trip id="439" depart="817.68" from="11" to="9"/>
    <trip id="440" depart="819.54" from="4" to="4"/>
    <trip id="441" depart="821.40" from="0" to="E4"/>
    <trip id="442" depart="823.26" from="E7" to="E14"/>
    <trip id="443" depart="825.13" from="11" to="8"/>
    <trip id="444" depart="826.99" from="6" to="E10"/>
    <trip id="445" depart="828.85" from="E13" to="8"/>
    <trip id="446" depart="830.71" from="4" to="E5"/>
    <trip id="447" depart="832.58" from="2" to="7"/>
    <trip id="448" depart="834.44" from="9" to="3"/>
    <trip id="449" depart="836.30" from="E1" to="E1"/>
    <trip id="450" depart="838.16" from="E9" to="5"/>
    <trip id="451" depart="840.03" from="E9" to="E11"/>
    <trip id="452" depart="841.89" from="4" to="E1"/>
    <trip id="453" depart="843.75" from="E2" to="E2"/>
    <trip id="454" depart="845.61" from="1" to="E10"/>
    <trip id="455" depart="847.48" from="9" to="E6"/>
    <trip id="456" depart="849.34" from="4" to="E4"/>
    <trip id="457" depart="851.20" from="E12" to="6"/>
    <trip id="458" depart="853.06" from="E13" to="E10"/>
    <trip id="459" depart="854.93" from="E2" to="E2"/>
    <trip id="460" depart="856.79" from="E13" to="E5"/>
    <trip id="461" depart="858.65" from="E13" to="E6"/>
    <trip id="462" depart="860.52" from="E13" to="5"/>
    <trip id="463" depart="862.38" from="8" to="E1"/>
    <trip id="464" depart="864.24" from="E3" to="10"/>
    <trip id="465" depart="866.10" from="5" to="E2"/>
    <trip id="466" depart="867.97" from="2" to="11"/>
    <trip id="467" depart="869.83" from="E0" to="E8"/>
    <trip id="468" depart="871.69" from="E0" to="E6"/>
    <trip id="469" depart="873.55" from="E5" to="4"/>
    <trip id="470" depart="875.42" from="E5" to="9"/>
    <trip id="471" depart="877.28" from="E5" to="E2"/>
    <trip id="472" depart="879.14" from="6" to="10"/>
    <trip id="473" depart="881.00" from="E9" to="11"/>
    <trip id="474" depart="882.87" from="E9" to="E5"/>
    <trip id="475" depart="884.73" from="E3" to="E8"/>
    <trip id="476" depart="886.59" from="E9" to="E4"/>
    <trip id="477" depart="888.45" from="6" to="E3"/>
    <trip id="478" depart="890.32" from="0" to="E0"/>
    <trip id="479" depart="892.18" from="8" to="E14"/>
    <trip id="480" depart="894.04" from="E2" to="E10"/>
    <trip id="481" depart="895.90" from="E5" to="E7"/>
    <trip id="482" depart="897.77" from="10" to="3"/>
    <trip id="483" depart="899.63" from="0" to="E6"/>
    <trip id="484" depart="901.49" from="E1" to="E6"/>
    <trip id="485" depart="903.35" from="3" to="1"/>
    <trip id="486" depart="905.22" from="E5" to="E6"/>
    <trip id="487" depart="907.08" from="5" to="7"/>
    <trip id="488" depart="908.94" from="11" to="E7"/>
    <trip id="489" depart="910.80" from="5" to="9"/>
    <trip id="490" depart="912.67" from="10" to="E6"/>
    <trip id="491" depart="914.53" from="11" to="8"/>
    <trip id="492" depart="916.39" from="E2" to="E2"/>
    <trip id="493" depart="918.26" from="E8" to="8"/>
    <trip id="494" depart="920.12" from="E3" to="11"/>
    <trip id="495" depart="921.98" from="7" to="10"/>
    <trip id="496" depart="923.84" from="9" to="7"/>
    <trip id="497" depart="925.71" from="E8" to="0"/>
    <trip id="498" depart="927.57" from="6" to="8"/>
    <trip id="499" depart="929.43" from="E8" to="E5"/>
    <trip id="500" depart="931.29" from="10" to="E14"/>
    <trip id="501" depart="933.16" from="E1" to="E8"/>
    <trip id="502" depart="935.02" from="6" to="7"/>
    <trip id="503" depart="936.88" from="2" to="10"/>
    <trip id="504" depart="938.74" from="E6" to="8"/>
    <trip id="505" depart="940.61" from="E13" to="E11"/>
    <trip id="506" depart="942.47" from="E12" to="0"/>
    <trip id="507" depart="944.33" from="E4" to="3"/>
    <trip id="508" depart="946.19" from="11" to="E1"/>
    <trip id="509" depart="948.06" from="1" to="E3"/>
    <trip id="510" depart="949.92" from="2" to="3"/>
    <trip id="511" depart="951.78" from="E6" to="5"/>
    <trip id="512" depart="953.64" from="11" to="E6"/>
    <trip id="513" depart="955.51" from="0" to="E5"/>
    <trip id="514" depart="957.37" from="11" to="11"/>
    <trip id="515" depart="959.23" from="4" to="2"/>
    <trip id="516" depart="961.09" from="E13" to="0"/>
    <trip id="517" depart="962.96" from="0" to="E3"/>
    <trip id="518" depart="964.82" from="3" to="5"/>
    <trip id="519" depart="966.68" from="2" to="1"/>
    <trip id="520" depart="968.55" from="E3" to="E0"/>
    <trip id="521" depart="970.41" from="E3" to="9"/>
    <trip id="522" depart="972.27" from="E4" to="E0"/>
    <trip id="523" depart="974.13" from="10" to="E0"/>
    <trip id="524" depart="976.00" from="E8" to="1"/>
    <trip id="525" depart="977.86" from="E4" to="E5"/>
    <trip id="526" depart="979.72" from="E0" to="8"/>
    <trip id="527" depart="981.58" from="E9" to="1"/>
    <trip id="528" depart="983.45" from="9" to="7"/>
    <trip id="529" depart="985.31" from="E2" to="9"/>
    <trip id="530" depart="987.17" from="E7" to="1"/>
    <trip id="531" depart="989.03" from="1" to="E10"/>
    <trip id="532" depart="990.90" from="1" to="4"/>
    <trip id="533" depart="992.76" from="E13" to="E1"/>
    <trip id="534" depart="994.62" from="5" to="E8"/>
    <trip id="535" depart="996.48" from="E0" to="8"/>
    <trip id="536" depart="998.35" from="E12" to="10"/>
    <trip id="537" depart="1000.21" from="E2" to="E5"/>
    <trip id="538" depart="1002.07" from="E13" to="E3"/>
    <trip id="539" depart="1003.93" from="E3" to="3"/>
    <trip id="540" depart="1005.80" from="8" to="3"/>
    <trip id="541" depart="1007.66" from="6" to="8"/>
    <trip id="542" depart="1009.52" from="7" to="10"/>
    <trip id="543" depart="1011.38" from="8" to="E11"/>
    <trip id="544" depart="1013.25" from="6" to="11"/>