<?xml version="1.0" encoding="UTF-8"?>

<!-- generated on 2024-01-24 19:56:34.246202 by randomTrips.py v1_14_1+0000-f654d7b963e
<configuration>
    <end value="1000"/>
    <net-file value="testNodes.net.xml"/>
</configuration>
-->

<routes xmlns:xsi="http://www.w3.org/2001/XMLSchema-instance" xsi:noNamespaceSchemaLocation="http://sumo.dlr.de/xsd/routes_file.xsd">
    <trip id="0" depart="0.00" from="633245785" to="131891597"/>
    <trip id="1" depart="1.00" from="476112161#0" to="474446519#0"/>
    <trip id="2" depart="2.00" from="651989328#1" to="636937263"/>
    <trip id="3" depart="3.00" from="74553758" to="22652564"/>
    <trip id="4" depart="4.00" from="536913685" to="173166885"/>
    <trip id="5" depart="5.00" from="474428340" to="587048092"/>
    <trip id="6" depart="6.00" from="139670215" to="467731257#1"/>
    <trip id="7" depart="7.00" from="633809926" to="628485342"/>
    <trip id="8" depart="8.00" from="474442486#0" to="630811192"/>
    <trip id="9" depart="9.00" from="661648099" to="-536913672"/>
    <trip id="10" depart="10.00" from="661645548" to="639626490"/>
    <trip id="11" depart="11.00" from="478930899" to="445716787"/>
    <trip id="12" depart="12.00" from="775875402" to="478162426"/>
    <trip id="13" depart="13.00" from="22698751#1" to="22718616"/>
    <trip id="14" depart="14.00" from="715211174" to="631937762"/>
    <trip id="15" depart="15.00" from="661645549" to="651144349"/>
    <trip id="16" depart="16.00" from="626535982" to="800225985"/>
    <trip id="17" depart="17.00" from="479765084" to="628729671"/>
    <trip id="18" depart="18.00" from="666827757" to="632506926"/>
    <trip id="19" depart="19.00" from="722532426" to="630419749#1"/>
    <trip id="20" depart="20.00" from="640008546" to="174552465"/>
    <trip id="21" depart="21.00" from="474446536" to="476389381"/>
    <trip id="22" depart="22.00" from="22325259" to="474660713"/>
    <trip id="23" depart="23.00" from="234371419" to="476374559#1"/>
    <trip id="24" depart="24.00" from="633197069" to="479754170"/>
    <trip id="25" depart="25.00" from="479754259" to="473440858"/>
    <trip id="26" depart="26.00" from="475171826" to="74974580"/>
    <trip id="27" depart="27.00" from="633802797" to="632203644"/>
    <trip id="28" depart="28.00" from="45065755" to="651106788"/>
    <trip id="29" depart="29.00" from="448937446" to="480275410"/>
    <trip id="30" depart="30.00" from="829637627" to="633245786"/>
    <trip id="31" depart="31.00" from="630160531" to="638655578"/>
    <trip id="32" depart="32.00" from="708802890" to="655146644#1"/>
    <trip id="33" depart="33.00" from="474446538" to="173779734"/>
    <trip id="34" depart="34.00" from="476693038" to="475171829"/>
    <trip id="35" depart="35.00" from="473888861" to="75511727"/>
    <trip id="36" depart="36.00" from="744580202" to="476693038"/>
    <trip id="37" depart="37.00" from="634048426" to="512918181#0"/>
    <trip id="38" depart="38.00" from="747299409" to="539415387"/>
    <trip id="39" depart="39.00" from="475163617" to="475116739"/>
    <trip id="40" depart="40.00" from="630171314#0" to="475163615"/>
    <trip id="41" depart="41.00" from="630434364" to="74671097"/>
    <trip id="42" depart="42.00" from="512918195#0" to="474431399"/>
    <trip id="43" depart="43.00" from="965101755" to="594262532#1"/>
    <trip id="44" depart="44.00" from="22698361" to="174552469"/>
    <trip id="45" depart="45.00" from="32776552" to="632953495"/>
    <trip id="46" depart="46.00" from="661062281" to="536913685"/>
    <trip id="47" depart="47.00" from="175959562" to="482256070"/>
    <trip id="48" depart="48.00" from="894149504" to="624291891#0"/>
    <trip id="49" depart="49.00" from="799582234" to="722532424"/>
    <trip id="50" depart="50.00" from="-652174552" to="649656203"/>
    <trip id="51" depart="51.00" from="638655469" to="626538766"/>
    <trip id="52" depart="52.00" from="475171826" to="633268070"/>
    <trip id="53" depart="53.00" from="33264343" to="536925685"/>
    <trip id="54" depart="54.00" from="538761283#1" to="761184181"/>
    <trip id="55" depart="55.00" from="742756626" to="475163615"/>
    <trip id="56" depart="56.00" from="585984924" to="464288938"/>
    <trip id="57" depart="57.00" from="74729031" to="726602325"/>
    <trip id="58" depart="58.00" from="476395128" to="633245785"/>
    <trip id="59" depart="59.00" from="632203643" to="445716747#1"/>
    <trip id="60" depart="60.00" from="655041207" to="627937587"/>
    <trip id="61" depart="61.00" from="655148387" to="624291892"/>
    <trip id="62" depart="62.00" from="-22810638" to="476753243"/>
    <trip id="63" depart="63.00" from="1060003332" to="74902653"/>
    <trip id="64" depart="64.00" from="74484458" to="667699977"/>
    <trip id="65" depart="65.00" from="476689637" to="175010893"/>
    <trip id="66" depart="66.00" from="74481732" to="758612225"/>
    <trip id="67" depart="67.00" from="22652297" to="585703842#1"/>
    <trip id="68" depart="68.00" from="194761557" to="654998152"/>
    <trip id="69" depart="69.00" from="655134403" to="398075703#0"/>
    <trip id="70" depart="70.00" from="585646209#1" to="628515049"/>
    <trip id="71" depart="71.00" from="475163617" to="728236699"/>
    <trip id="72" depart="72.00" from="536913687" to="474210631"/>
    <trip id="73" depart="73.00" from="627686931" to="651144349"/>
    <trip id="74" depart="74.00" from="473393258" to="476692299"/>
    <trip id="75" depart="75.00" from="883233391" to="633809926"/>
    <trip id="76" depart="76.00" from="537579062" to="620772394"/>
    <trip id="77" depart="77.00" from="349416402" to="474446520"/>
    <trip id="78" depart="78.00" from="478313239" to="630446800"/>
    <trip id="79" depart="79.00" from="474446540#1" to="474442486#1"/>
    <trip id="80" depart="80.00" from="21328555" to="633149442"/>
    <trip id="81" depart="81.00" from="474446538" to="74687494"/>
    <trip id="82" depart="82.00" from="722532423#0" to="21328555"/>
    <trip id="83" depart="83.00" from="474928046" to="635111917"/>
    <trip id="84" depart="84.00" from="474427037#0" to="445282961#0"/>
    <trip id="85" depart="85.00" from="74962089" to="630412105#1"/>
    <trip id="86" depart="86.00" from="582412289#1" to="655504834"/>
    <trip id="87" depart="87.00" from="661645550" to="465461961"/>
    <trip id="88" depart="88.00" from="22718616" to="536913705"/>
    <trip id="89" depart="89.00" from="536913688" to="581565350"/>
    <trip id="90" depart="90.00" from="651106783#1" to="636736606"/>
    <trip id="91" depart="91.00" from="824411067" to="22719965#1"/>
    <trip id="92" depart="92.00" from="512918201#1" to="478881770"/>
    <trip id="93" depart="93.00" from="722532426" to="475132223"/>
    <trip id="94" depart="94.00" from="465461960#1" to="538440081"/>
    <trip id="95" depart="95.00" from="536913685" to="476374559#1"/>
    <trip id="96" depart="96.00" from="475134293" to="747882605"/>
    <trip id="97" depart="97.00" from="538260866" to="722532426"/>
    <trip id="98" depart="98.00" from="628515049" to="174886195"/>
    <trip id="99" depart="99.00" from="980074180" to="673494267"/>
    <trip id="100" depart="100.00" from="799571433" to="74869296"/>
    <trip id="101" depart="101.00" from="717440786" to="448937598"/>
    <trip id="102" depart="102.00" from="585703842#0" to="474427037#0"/>
    <trip id="103" depart="103.00" from="512918198" to="175010915"/>
    <trip id="104" depart="104.00" from="479765085" to="825755284"/>
    <trip id="105" depart="105.00" from="475163617" to="655504381"/>
    <trip id="106" depart="106.00" from="539379658" to="536913688"/>
    <trip id="107" depart="107.00" from="775875402" to="883233391"/>
    <trip id="108" depart="108.00" from="630159972" to="649386685"/>
    <trip id="109" depart="109.00" from="445716787" to="476395118"/>
    <trip id="110" depart="110.00" from="799571432" to="630423250#0"/>
    <trip id="111" depart="111.00" from="627983391" to="652293279"/>
    <trip id="112" depart="112.00" from="174886239" to="630434364"/>
    <trip id="113" depart="113.00" from="585984927" to="717470516"/>
    <trip id="114" depart="114.00" from="445716790" to="794628388"/>
    <trip id="115" depart="115.00" from="22325259" to="464981417#0"/>
    <trip id="116" depart="116.00" from="631741562" to="636850216"/>
    <trip id="117" depart="117.00" from="474660715" to="34905413"/>
    <trip id="118" depart="118.00" from="74553749" to="475116739"/>
    <trip id="119" depart="119.00" from="631722832" to="632512661"/>
    <trip id="120" depart="120.00" from="536913673" to="630434361"/>
    <trip id="121" depart="121.00" from="623713564" to="74962088"/>
    <trip id="122" depart="122.00" from="473439152" to="649078302#1"/>
    <trip id="123" depart="123.00" from="474928047" to="512918181#0"/>
    <trip id="124" depart="124.00" from="636711970" to="476395133"/>
    <trip id="125" depart="125.00" from="476693039" to="652572204"/>
    <trip id="126" depart="126.00" from="21463643" to="539415384"/>
    <trip id="127" depart="127.00" from="965108935" to="894149504"/>
    <trip id="128" depart="128.00" from="21560675" to="474427035"/>
    <trip id="129" depart="129.00" from="475163617" to="74957634"/>
    <trip id="130" depart="130.00" from="74518112" to="74484458"/>
    <trip id="131" depart="131.00" from="479754259" to="445716790"/>
    <trip id="132" depart="132.00" from="672297852" to="639916004"/>
    <trip id="133" depart="133.00" from="632378379#0" to="826116981"/>
    <trip id="134" depart="134.00" from="634039716" to="-536913688"/>
    <trip id="135" depart="135.00" from="661669166" to="476395132"/>
    <trip id="136" depart="136.00" from="634691897" to="75039128"/>
    <trip id="137" depart="137.00" from="445282962" to="33793690"/>
    <trip id="138" depart="138.00" from="325024345" to="628742183"/>
    <trip id="139" depart="139.00" from="476109718" to="632123135"/>
    <trip id="140" depart="140.00" from="649101693" to="473439152"/>
    <trip id="141" depart="141.00" from="633194211" to="475163616"/>
    <trip id="142" depart="142.00" from="585722578" to="74687494"/>
    <trip id="143" depart="143.00" from="713609829" to="22698751#0"/>
    <trip id="144" depart="144.00" from="536913688" to="476369778"/>
    <trip id="145" depart="145.00" from="-536913659" to="655143897"/>
    <trip id="146" depart="146.00" from="633219124#0" to="475162280"/>
    <trip id="147" depart="147.00" from="652149690" to="628723688"/>
    <trip id="148" depart="148.00" from="536913698" to="-638460477"/>
    <trip id="149" depart="149.00" from="22291137#0" to="74527424"/>
    <trip id="150" depart="150.00" from="74685970#1" to="628487417"/>
    <trip id="151" depart="151.00" from="673460192" to="630428032"/>
    <trip id="152" depart="152.00" from="445716721" to="391007733#0"/>
    <trip id="153" depart="153.00" from="476692294" to="74671121"/>
    <trip id="154" depart="154.00" from="661351277" to="722532424"/>
    <trip id="155" depart="155.00" from="74671121" to="473887259"/>
    <trip id="156" depart="156.00" from="475132223" to="23924436#0"/>
    <trip id="157" depart="157.00" from="655182285" to="74527426"/>
    <trip id="158" depart="158.00" from="532990228" to="632562097#0"/>
    <trip id="159" depart="159.00" from="445716751" to="74908479"/>
    <trip id="160" depart="160.00" from="723629905" to="816753390"/>
    <trip id="161" depart="161.00" from="661664214" to="74518780"/>
    <trip id="162" depart="162.00" from="131891597" to="651989329"/>
    <trip id="163" depart="163.00" from="477792528" to="74914974"/>
    <trip id="164" depart="164.00" from="661628136" to="723629904"/>
    <trip id="165" depart="165.00" from="661664214" to="475171828"/>
    <trip id="166" depart="166.00" from="655654574" to="32775483"/>
    <trip id="167" depart="167.00" from="728236699" to="722532422"/>
    <trip id="168" depart="168.00" from="474446518" to="661669166"/>
    <trip id="169" depart="169.00" from="539415391" to="476689623"/>
    <trip id="170" depart="170.00" from="661349659" to="474446536"/>
    <trip id="171" depart="171.00" from="131891595" to="467414539"/>
    <trip id="172" depart="172.00" from="477557470" to="723629905"/>
    <trip id="173" depart="173.00" from="795573350" to="476374560"/>
    <trip id="174" depart="174.00" from="633268070" to="512918195#1"/>
    <trip id="175" depart="175.00" from="822131989" to="626538765"/>
    <trip id="176" depart="176.00" from="75039128" to="33793689"/>
    <trip id="177" depart="177.00" from="799575776" to="464288938"/>
    <trip id="178" depart="178.00" from="794632237" to="475171825"/>
    <trip id="179" depart="179.00" from="32775483" to="536925685"/>
    <trip id="180" depart="180.00" from="651106783#1" to="476692302"/>
    <trip id="181" depart="181.00" from="632123139" to="602479029#1"/>
    <trip id="182" depart="182.00" from="486025351" to="630419749#0"/>
    <trip id="183" depart="183.00" from="475157992" to="640287950"/>
    <trip id="184" depart="184.00" from="-480288943" to="74867791"/>
    <trip id="185" depart="185.00" from="627686928" to="649405237"/>
    <trip id="186" depart="186.00" from="652150007" to="635671567"/>
    <trip id="187" depart="187.00" from="479753463" to="19780804"/>
    <trip id="188" depart="188.00" from="634772084" to="477711619"/>
    <trip id="189" depart="189.00" from="476692301" to="715211175"/>
    <trip id="190" depart="190.00" from="649405237" to="476395133"/>
    <trip id="191" depart="191.00" from="476692295" to="533055059"/>
    <trip id="192" depart="192.00" from="512918201#1" to="476389388"/>
    <trip id="193" depart="193.00" from="391007733#0" to="536913683"/>
    <trip id="194" depart="194.00" from="75070576" to="637109636"/>
    <trip id="195" depart="195.00" from="74685968" to="632494948"/>
    <trip id="196" depart="196.00" from="476395133" to="628501871"/>
    <trip id="197" depart="197.00" from="-22810638" to="476381191"/>
    <trip id="198" depart="198.00" from="536913702" to="630423250#1"/>
    <trip id="199" depart="199.00" from="634047679" to="552617008"/>
    <trip id="200" depart="200.00" from="538007788" to="474427037#0"/>
    <trip id="201" depart="201.00" from="582412290#0" to="74676545"/>
    <trip id="202" depart="202.00" from="661351277" to="448937650"/>
    <trip id="203" depart="203.00" from="22651486" to="620530723"/>
    <trip id="204" depart="204.00" from="633192124" to="478126342"/>
    <trip id="205" depart="205.00" from="661669168" to="652572202"/>
    <trip id="206" depart="206.00" from="636736093" to="474446520"/>
    <trip id="207" depart="207.00" from="467731257#1" to="131891597"/>
    <trip id="208" depart="208.00" from="475116736" to="585646209#1"/>
    <trip id="209" depart="209.00" from="717446180" to="21463643"/>
    <trip id="210" depart="210.00" from="536913658" to="632978629"/>
    <trip id="211" depart="211.00" from="467414540#0" to="639626488"/>
    <trip id="212" depart="212.00" from="585984913" to="475116736"/>
    <trip id="213" depart="213.00" from="634085407" to="-536913668"/>
    <trip id="214" depart="214.00" from="652558527" to="655141939"/>
    <trip id="215" depart="215.00" from="306116898" to="536913693"/>
    <trip id="216" depart="216.00" from="464205497" to="792755656"/>
    <trip id="217" depart="217.00" from="620772394" to="174886195"/>
    <trip id="218" depart="218.00" from="475132223" to="717440786"/>
    <trip id="219" depart="219.00" from="539415380" to="661628135"/>
    <trip id="220" depart="220.00" from="634806490" to="828671298"/>
    <trip id="221" depart="221.00" from="631741562" to="758656577"/>
    <trip id="222" depart="222.00" from="74553753" to="632378379#1"/>
    <trip id="223" depart="223.00" from="649405237" to="585985522#1"/>
    <trip id="224" depart="224.00" from="666827759" to="628501871"/>
    <trip id="225" depart="225.00" from="74668481" to="652169828"/>
    <trip id="226" depart="226.00" from="585646209#0" to="475159371"/>
    <trip id="227" depart="227.00" from="475116739" to="633219124#1"/>
    <trip id="228" depart="228.00" from="655134403" to="623713563#0"/>
    <trip id="229" depart="229.00" from="632950645" to="476112161#0"/>
    <trip id="230" depart="230.00" from="22293549" to="476380451"/>
    <trip id="231" depart="231.00" from="476109718" to="476708350"/>
    <trip id="232" depart="232.00" from="627937587" to="445716678#1"/>
    <trip id="233" depart="233.00" from="474471903" to="639425455"/>
    <trip id="234" depart="234.00" from="640219436" to="175959563"/>
    <trip id="235" depart="235.00" from="533055058" to="628201210"/>
    <trip id="236" depart="236.00" from="536913659" to="473440855"/>
    <trip id="237" depart="237.00" from="536913682" to="74687493"/>
    <trip id="238" depart="238.00" from="630434361" to="639562029"/>
    <trip id="239" depart="239.00" from="722532420" to="655134403"/>
    <trip id="240" depart="240.00" from="480288943" to="-536913668"/>
    <trip id="241" depart="241.00" from="479087197" to="654725903"/>
    <trip id="242" depart="242.00" from="717470516" to="761157096"/>
    <trip id="243" depart="243.00" from="536913673" to="652293278"/>
    <trip id="244" depart="244.00" from="628487417" to="631937761#1"/>
    <trip id="245" depart="245.00" from="474442486#0" to="474431399"/>
    <trip id="246" depart="246.00" from="537156685" to="172065638"/>
    <trip id="247" depart="247.00" from="478126343" to="638164497"/>
    <trip id="248" depart="248.00" from="532977598" to="448937581"/>
    <trip id="249" depart="249.00" from="581565350" to="391007733#1"/>
    <trip id="250" depart="250.00" from="632562817" to="155954288"/>
    <trip id="251" depart="251.00" from="512918178#1" to="630180102"/>
    <trip id="252" depart="252.00" from="155954288" to="633284852"/>
    <trip id="253" depart="253.00" from="445282968" to="539638975"/>
    <trip id="254" depart="254.00" from="174886195" to="480275410"/>
    <trip id="255" depart="255.00" from="473888861" to="477557468"/>
    <trip id="256" depart="256.00" from="655041206" to="480275410"/>
    <trip id="257" depart="257.00" from="652572204" to="667699977"/>
    <trip id="258" depart="258.00" from="475157986" to="223671420"/>
    <trip id="259" depart="259.00" from="1060003332" to="627937587"/>
    <trip id="260" depart="260.00" from="980074180" to="479086374"/>
    <trip id="261" depart="261.00" from="633809926" to="655227868"/>
    <trip id="262" depart="262.00" from="633846965" to="654764094#0"/>
    <trip id="263" depart="263.00" from="758639272" to="470118588"/>
    <trip id="264" depart="264.00" from="1075740308" to="445716747#0"/>
    <trip id="265" depart="265.00" from="391007732#1" to="635111917"/>
    <trip id="266" depart="266.00" from="630179678" to="474428340"/>
    <trip id="267" depart="267.00" from="639725512" to="655135133"/>
    <trip id="268" depart="268.00" from="448937645#1" to="632124902#1"/>
    <trip id="269" depart="269.00" from="652293278" to="33264691#1"/>
    <trip id="270" depart="270.00" from="661669990" to="795505749"/>
    <trip id="271" depart="271.00" from="32775483" to="131891598"/>
    <trip id="272" depart="272.00" from="476692299" to="637109636"/>
    <trip id="273" depart="273.00" from="792755656" to="512918181#1"/>
    <trip id="274" depart="274.00" from="649069256" to="22291137#1"/>
    <trip id="275" depart="275.00" from="639347365" to="632953495"/>
    <trip id="276" depart="276.00" from="23816952" to="655144779"/>
    <trip id="277" depart="277.00" from="717446181" to="631932376"/>
    <trip id="278" depart="278.00" from="349416402" to="824407782"/>
    <trip id="279" depart="279.00" from="655504379" to="479083905"/>
    <trip id="280" depart="280.00" from="536913699" to="479754537"/>
    <trip id="281" depart="281.00" from="587048092" to="479079783"/>
    <trip id="282" depart="282.00" from="717446180" to="661670600"/>
    <trip id="283" depart="283.00" from="305935886" to="794628388"/>
    <trip id="284" depart="284.00" from="633197069" to="666827754"/>
    <trip id="285" depart="285.00" from="640251076" to="537156685"/>
    <trip id="286" depart="286.00" from="651980285" to="795505751"/>
    <trip id="287" depart="287.00" from="475343498" to="661648096"/>
    <trip id="288" depart="288.00" from="627686928" to="585646225#1"/>
    <trip id="289" depart="289.00" from="537156685" to="651144350"/>
    <trip id="290" depart="290.00" from="475171829" to="717446183"/>
    <trip id="291" depart="291.00" from="666827759" to="22652564"/>
    <trip id="292" depart="292.00" from="74518780" to="475116736"/>
    <trip id="293" depart="293.00" from="542096116" to="632203646"/>
    <trip id="294" depart="294.00" from="479765085" to="172065637#1"/>
    <trip id="295" depart="295.00" from="717446182" to="464289006"/>
    <trip id="296" depart="296.00" from="474210631" to="661351279"/>
    <trip id="297" depart="297.00" from="478930899" to="74518112"/>
    <trip id="298" depart="298.00" from="639872756" to="476112208"/>
    <trip id="299" depart="299.00" from="-645158440" to="758620616"/>
    <trip id="300" depart="300.00" from="22652297" to="649626423"/>
    <trip id="301" depart="301.00" from="585722578" to="654870361"/>
    <trip id="302" depart="302.00" from="639347365" to="633569463"/>
    <trip id="303" depart="303.00" from="585984907" to="661340995"/>
    <trip id="304" depart="304.00" from="22698751#1" to="474442491"/>
    <trip id="305" depart="305.00" from="639419044" to="476689634"/>
    <trip id="306" depart="306.00" from="630427578" to="582412290#1"/>
    <trip id="307" depart="307.00" from="624291892" to="536913694"/>
    <trip id="308" depart="308.00" from="652278775" to="477792527"/>
    <trip id="309" depart="309.00" from="639916002" to="475907154"/>
    <trip id="310" depart="310.00" from="475156717" to="34905414"/>
    <trip id="311" depart="311.00" from="465467899" to="34905413"/>
    <trip id="312" depart="312.00" from="626535982" to="655041207"/>
    <trip id="313" depart="313.00" from="464811634" to="474428337"/>
    <trip id="314" depart="314.00" from="585646226#0" to="650712395"/>
    <trip id="315" depart="315.00" from="816753391" to="623713566"/>
    <trip id="316" depart="316.00" from="476380447" to="22810638"/>
    <trip id="317" depart="317.00" from="467414539" to="474446536"/>
    <trip id="318" depart="318.00" from="464288939" to="-730123297"/>
    <trip id="319" depart="319.00" from="624291909" to="476112161#0"/>
    <trip id="320" depart="320.00" from="801503384" to="628742183"/>
    <trip id="321" depart="321.00" from="639626489" to="391007732#1"/>
    <trip id="322" depart="322.00" from="725219495" to="585984909"/>
    <trip id="323" depart="323.00" from="730123297" to="630419696#0"/>
    <trip id="324" depart="324.00" from="582412262" to="537989237"/>
    <trip id="325" depart="325.00" from="464289009" to="174886197"/>
    <trip id="326" depart="326.00" from="75097137" to="585646212#1"/>
    <trip id="327" depart="327.00" from="661670599" to="512918198"/>
    <trip id="328" depart="328.00" from="21560679" to="632969492"/>
    <trip id="329" depart="329.00" from="174886200" to="445716729"/>
    <trip id="330" depart="330.00" from="630179677#0" to="476689617"/>
    <trip id="331" depart="331.00" from="847928506" to="34905412"/>
    <trip id="332" depart="332.00" from="655065973" to="632124902#0"/>
    <trip id="333" depart="333.00" from="661062280" to="474446530"/>
    <trip id="334" depart="334.00" from="623713563#1" to="538754961"/>
    <trip id="335" depart="335.00" from="538260863" to="722532423#1"/>
    <trip id="336" depart="336.00" from="829637627" to="476689629"/>
    <trip id="337" depart="337.00" from="632562097#0" to="632203644"/>
    <trip id="338" depart="338.00" from="652145239" to="758612225"/>
    <trip id="339" depart="339.00" from="473440855" to="473888861"/>
    <trip id="340" depart="340.00" from="634477657" to="445716788#1"/>
    <trip id="341" depart="341.00" from="463995441" to="22291132"/>
    <trip id="342" depart="342.00" from="-536913658" to="538754961"/>
    <trip id="343" depart="343.00" from="630866045" to="476389383"/>
    <trip id="344" depart="344.00" from="474493462" to="640251076"/>
    <trip id="345" depart="345.00" from="639916002" to="538761283#1"/>
    <trip id="346" depart="346.00" from="638656589" to="747882606"/>
    <trip id="347" depart="347.00" from="655655597" to="632914226"/>
    <trip id="348" depart="348.00" from="634526650" to="74957634"/>
    <trip id="349" depart="349.00" from="536913693" to="628485342"/>
    <trip id="350" depart="350.00" from="633800167" to="74694908"/>
    <trip id="351" depart="351.00" from="665752322" to="21462998"/>
    <trip id="352" depart="352.00" from="448937596" to="476692294"/>
    <trip id="353" depart="353.00" from="652296652" to="630397574"/>
    <trip id="354" depart="354.00" from="476389378" to="383365020"/>
    <trip id="355" depart="355.00" from="638961738" to="639856909"/>
    <trip id="356" depart="356.00" from="75511727" to="585984925"/>
    <trip id="357" depart="357.00" from="585984912" to="22325259"/>
    <trip id="358" depart="358.00" from="174281610" to="536913706"/>
    <trip id="359" depart="359.00" from="476716878" to="475156716"/>
    <trip id="360" depart="360.00" from="22698750" to="794631148"/>
    <trip id="361" depart="361.00" from="673460196" to="630419696#1"/>
    <trip id="362" depart="362.00" from="758858115" to="980074180"/>
    <trip id="363" depart="363.00" from="636736093" to="475343498"/>
    <trip id="364" depart="364.00" from="174281621" to="654859626"/>
    <trip id="365" depart="365.00" from="582412286#1" to="633846965"/>
    <trip id="366" depart="366.00" from="74746294" to="464289006"/>
    <trip id="367" depart="367.00" from="630436410" to="633197069"/>
    <trip id="368" depart="368.00" from="585984910" to="22698750"/>
    <trip id="369" depart="369.00" from="479083905" to="477939945"/>
    <trip id="370" depart="370.00" from="635112968" to="722532421"/>
    <trip id="371" depart="371.00" from="477574135" to="639425455"/>
    <trip id="372" depart="372.00" from="476389376" to="756107569"/>
    <trip id="373" depart="373.00" from="661668221" to="628515049"/>
    <trip id="374" depart="374.00" from="539379658" to="476693038"/>
    <trip id="375" depart="375.00" from="476752808" to="799575776"/>
    <trip id="376" depart="376.00" from="532977598" to="617971450"/>
    <trip id="377" depart="377.00" from="828671298" to="634184989"/>
    <trip id="378" depart="378.00" from="628201210" to="536423096"/>
    <trip id="379" depart="379.00" from="465123975" to="479615165"/>
    <trip id="380" depart="380.00" from="654766089" to="632914226"/>
    <trip id="381" depart="381.00" from="654997378" to="473439152"/>
    <trip id="382" depart="382.00" from="628511633" to="74873567"/>
    <trip id="383" depart="383.00" from="537579062" to="639626490"/>
    <trip id="384" depart="384.00" from="358645124" to="800225985"/>
    <trip id="385" depart="385.00" from="632203643" to="474928049"/>
    <trip id="386" depart="386.00" from="447712937" to="628706178"/>
    <trip id="387" depart="387.00" from="628723688" to="22698751#1"/>
    <trip id="388" depart="388.00" from="831077926" to="74729037"/>
    <trip id="389" depart="389.00" from="539497795" to="33794077"/>
    <trip id="390" depart="390.00" from="667699977" to="585984919"/>
    <trip id="391" depart="391.00" from="649078302#1" to="594262532#0"/>
    <trip id="392" depart="392.00" from="476112157" to="673460194"/>
    <trip id="393" depart="393.00" from="821527758" to="474929435"/>
    <trip id="394" depart="394.00" from="628706178" to="486025333"/>
    <trip id="395" depart="395.00" from="747809796" to="587050477#1"/>
    <trip id="396" depart="396.00" from="74484458" to="723629904"/>
    <trip id="397" depart="397.00" from="476112208" to="655658863"/>
    <trip id="398" depart="398.00" from="536913658" to="74962078"/>
    <trip id="399" depart="399.00" from="587050477#0" to="661669992"/>
    <trip id="400" depart="400.00" from="476380447" to="476395130"/>
    <trip id="401" depart="401.00" from="630439712" to="980074179"/>
    <trip id="402" depart="402.00" from="585984904" to="445716721"/>
    <trip id="403" depart="403.00" from="627686928" to="479080157"/>
    <trip id="404" depart="404.00" from="628723688" to="628201211"/>
    <trip id="405" depart="405.00" from="539413297" to="476716878"/>
    <trip id="406" depart="406.00" from="465123976" to="639626489"/>
    <trip id="407" depart="407.00" from="630412105#1" to="474660714"/>
    <trip id="408" depart="408.00" from="655146644#1" to="174281643"/>
    <trip id="409" depart="409.00" from="652174551" to="640093683"/>
    <trip id="410" depart="410.00" from="661664216" to="500367613"/>
    <trip id="411" depart="411.00" from="634691897" to="661669992"/>
    <trip id="412" depart="412.00" from="821563445" to="585984915"/>
    <trip id="413" depart="413.00" from="174049665" to="585984927"/>
    <trip id="414" depart="414.00" from="630811192" to="726600900"/>
    <trip id="415" depart="415.00" from="735054780" to="537979490"/>
    <trip id="416" depart="416.00" from="623715810#1" to="539415381"/>
    <trip id="417" depart="417.00" from="649803256" to="535604972"/>
    <trip id="418" depart="418.00" from="634048426" to="445716751"/>
    <trip id="419" depart="419.00" from="582412262" to="799571433"/>
    <trip id="420" depart="420.00" from="478878325" to="639425452"/>
    <trip id="421" depart="421.00" from="633809926" to="717446183"/>
    <trip id="422" depart="422.00" from="717470515" to="722532423#0"/>
    <trip id="423" depart="423.00" from="480275410" to="476703994"/>
    <trip id="424" depart="424.00" from="649386685" to="654997378"/>
    <trip id="425" depart="425.00" from="728236699" to="174041987#1"/>
    <trip id="426" depart="426.00" from="190451325" to="633149442"/>
    <trip id="427" depart="427.00" from="74769776" to="965101755"/>
    <trip id="428" depart="428.00" from="652292208" to="536925684"/>
    <trip id="429" depart="429.00" from="22719965#1" to="633194211"/>