<?xml version="1.0" encoding="UTF-8"?>

<!-- generated on 2024-01-24 14:19:02 by Eclipse SUMO polyconvert Version 1.14.1
<configuration xmlns:xsi="http://www.w3.org/2001/XMLSchema-instance" xsi:noNamespaceSchemaLocation="http://sumo.dlr.de/xsd/polyconvertConfiguration.xsd">

    <input>
        <net-file value="osm.net.xml"/>
        <osm-files value="osm_bbox.osm.xml.gz"/>
        <osm.keep-full-type value="true"/>
        <type-file value="C:\Program%20Files%20(x86)\Eclipse\Sumo\data\typemap\osmPolyconvert.typ.xml"/>
    </input>

    <output>
        <output-file value="osm.poly.xml"/>
    </output>

    <report>
        <verbose value="true"/>
    </report>

</configuration>
-->

<additional xmlns:xsi="http://www.w3.org/2001/XMLSchema-instance" xsi:noNamespaceSchemaLocation="http://sumo.dlr.de/xsd/additional_file.xsd">
    <location netOffset="-389926.09,-5819108.12" convBoundary="-937.92,-3727.26,5357.62,4151.07" origBoundary="13.365446,52.477280,13.456601,52.548335" projParameter="+proj=utm +zone=33 +ellps=WGS84 +datum=WGS84 +units=m +no_defs"/>

    <poly id="1000875898" type="landuse.commercial" color="209,209,204" fill="1" layer="-3.00" shape="2668.018403,1086.808823 2666.888800,1085.131086 2665.205424,1082.653186 2661.807323,1078.744061 2667.900225,1073.992508 2663.185873,1067.942383 2659.682046,1063.545967 2660.648307,1058.394986 2667.608040,1052.622945 2679.588253,1043.335797 2676.702185,1039.871662 2681.466557,1036.440055 2682.048377,1035.114249 2682.389372,1033.949510 2682.292017,1032.605214 2681.830985,1031.391297 2680.524491,1029.695180 2642.537881,981.923296 2641.544077,981.177297 2640.099615,980.619225 2638.748719,980.303905 2637.297613,980.680691 2635.996790,981.410262 2604.829138,1005.929258 2602.716436,1007.088372 2600.777396,1007.809702 2598.943980,1008.395185 2597.381893,1008.663143 2595.176940,1008.711533 2586.655838,1008.598100 2568.685621,1034.741640 2567.179107,1036.922323 2566.916867,1037.962940 2567.065303,1038.849884 2567.379444,1039.555150 2569.334749,1042.049305 2570.915637,1044.184471 2569.907059,1044.929900 2568.671717,1045.858348 2633.873385,1139.256283 2635.858794,1137.866295 2638.571862,1141.489987 2640.024032,1143.639124 2640.671806,1144.392713 2641.640833,1144.938959 2642.657547,1145.183716 2643.753720,1145.337709 2644.911880,1145.223283 2645.733707,1144.938194 2648.412578,1143.599764 2650.592096,1142.394692 2660.928028,1136.136861 2659.445511,1133.532155 2668.018403,1086.808823"/>
    <poly id="1014046275" type="building.yes" color="255,230,230" fill="1" layer="-1.00" shape="1418.029253,541.321448 1421.932802,542.859489 1429.685366,545.925663 1433.411014,547.400893 1436.079329,540.687400 1433.168756,539.539045 1441.334487,518.994412 1431.041155,514.927450 1422.868427,535.461129 1420.697551,534.607947 1418.029253,541.321448"/>
    <poly id="1025206459" type="amenity.fountain" color="237,199,199" fill="1" layer="-1.00" shape="932.959276,733.041324 934.163296,734.372068 935.691101,735.306130 937.420810,735.857354 939.094103,736.009240 940.807456,735.826403 942.471921,735.277445 943.903069,734.310834 944.853328,733.087875 945.352069,731.708061 945.420884,730.226550 944.938388,728.679429 944.033152,727.353152 942.645599,726.315814 940.857147,725.565599 938.815980,725.355144 936.776453,725.522993 934.694543,726.225915 933.408603,727.311697 932.609100,728.598065 932.199806,730.031525 932.392042,731.651879 932.959276,733.041324"/>
    <poly id="1025206459#1" type="landuse.grass" color="194,194,130" fill="1" layer="-3.00" shape="932.959276,733.041324 934.163296,734.372068 935.691101,735.306130 937.420810,735.857354 939.094103,736.009240 940.807456,735.826403 942.471921,735.277445 943.903069,734.310834 944.853328,733.087875 945.352069,731.708061 945.420884,730.226550 944.938388,728.679429 944.033152,727.353152 942.645599,726.315814 940.857147,725.565599 938.815980,725.355144 936.776453,725.522993 934.694543,726.225915 933.408603,727.311697 932.609100,728.598065 932.199806,730.031525 932.392042,731.651879 932.959276,733.041324"/>
    <poly id="1027050440" type="leisure.park" color="207,245,201" fill="1" layer="-2.00" shape="1074.863094,928.966005 1041.974288,925.258145 1036.280906,990.581800 1061.556664,992.611869 1065.696103,955.353386 1072.858823,956.028539 1074.863094,928.966005"/>
    <poly id="1036234485" type="building.commercial" color="255,230,230" fill="1" layer="-1.00" shape="586.624816,478.369195 607.584156,480.015015 620.437584,481.040851 623.790161,481.299769 628.299211,481.666381 631.631431,481.925759 644.682116,482.969507 644.716195,482.367851 644.799587,481.542540 647.643212,445.647909 610.216546,442.578326 593.337919,441.275262 592.802253,447.986096 592.690089,449.346179 592.589858,451.240125 592.442994,451.655131 592.259718,451.959675 591.940985,452.278374 591.599411,452.486306 591.356881,452.569621 590.971612,452.644998 588.334698,452.514766 587.975911,460.456819 587.747742,464.523521 587.598349,466.040224 586.722909,476.987171 586.624816,478.369195"/>
    <poly id="1040554454" type="leisure.playground" color="207,245,201" fill="1" layer="-2.00" shape="541.460922,1300.045956 529.157466,1323.511287 527.982462,1322.869911 517.800569,1317.378054 538.286613,1298.325398 540.354750,1299.447547 541.460922,1300.045956"/>
    <poly id="1042965022" type="leisure.park" color="207,245,201" fill="1" layer="-2.00" shape="2425.649449,684.272672 2444.275230,690.094766 2438.677290,708.733997 2436.863675,713.313887 2428.405082,733.674002 2413.974199,727.837657 2409.612086,725.797055 2414.896851,714.842669 2422.512250,697.505497 2425.649449,684.272672"/>
    <poly id="1042965023" type="building.yes" color="255,230,230" fill="1" layer="-1.00" shape="2446.709544,627.571305 2451.252549,628.573107 2449.899824,634.667335 2445.356825,633.665534 2446.709544,627.571305"/>
    <poly id="1042965024" type="leisure.park" color="207,245,201" fill="1" layer="-2.00" shape="2476.693491,525.907967 2471.181573,541.062339 2463.678637,562.302709 2458.729088,579.258531 2453.618114,598.443413 2446.709544,627.571305 2451.252549,628.573107 2449.899824,634.667335 2449.193239,637.420234 2449.848264,637.572754 2447.377439,648.698941 2446.110801,653.767545 2444.106038,662.624604 2442.527162,669.547242 2440.298245,680.868414 2445.694940,682.107382 2469.256922,604.865363 2482.543801,562.934275 2491.176940,538.442130 2480.528649,534.547705 2482.868357,527.953326 2476.693491,525.907967"/>
    <poly id="1043377446" type="natural.scrub" color="140,196,107" fill="1" layer="-4.00" shape="1675.020046,1134.470187 1672.046404,1140.266724 1690.794260,1150.100293 1693.910773,1144.011288 1675.020046,1134.470187"/>
    <poly id="1043377447" type="natural.scrub" color="140,196,107" fill="1" layer="-4.00" shape="1664.034745,1146.297190 1653.487383,1167.172395 1676.467266,1178.080613 1689.278259,1153.060404 1670.511042,1143.271780 1667.882206,1148.393031 1664.034745,1146.297190"/>
    <poly id="1043377448" type="natural.scrub" color="140,196,107" fill="1" layer="-4.00" shape="1650.475957,1181.070680 1647.368598,1179.292295 1651.673369,1170.773390 1674.710606,1181.513415 1662.407516,1205.554324 1643.193416,1195.809085 1650.475957,1181.070680"/>
    <poly id="1043377453" type="landuse.grass" color="194,194,130" fill="1" layer="-3.00" shape="1810.351597,1094.544072 1816.712959,1091.532529 1826.134522,1087.552018 1832.868111,1085.411348 1838.397576,1084.376677 1849.677198,1083.693424 1842.223234,1078.116316 1845.321788,1074.275587 1838.242816,1068.467645 1837.394324,1067.852125 1835.839516,1067.218833 1834.166865,1067.088887 1832.713872,1067.376935 1831.384572,1068.040588 1830.604810,1068.692095 1829.950116,1069.474369 1811.296228,1091.218294 1810.591645,1092.813988 1810.351597,1094.544072"/>
    <poly id="1043377454" type="landuse.grass" color="194,194,130" fill="1" layer="-3.00" shape="1811.824858,1098.550818 1836.572353,1125.867287 1839.238984,1122.447819 1846.933407,1113.108637 1850.392596,1108.080416 1853.618615,1103.558091 1856.460006,1096.373647 1858.174994,1091.662164 1855.941273,1089.486005 1854.692165,1088.556635 1852.897357,1087.505793 1851.387934,1087.082917 1849.556055,1086.811826 1844.739148,1086.918275 1841.697240,1087.486243 1831.634047,1089.155239 1814.574084,1095.797167 1811.824858,1098.550818"/>
    <poly id="1043377455" type="landuse.grass" color="194,194,130" fill="1" layer="-3.00" shape="1840.367099,1126.195139 1841.166912,1126.144080 1876.317367,1092.841425 1874.136306,1090.897774 1870.878377,1091.826578 1864.970518,1092.324322 1859.211741,1099.261653 1857.399128,1101.705265 1851.863956,1110.774160 1845.654946,1118.222199 1840.393450,1125.237584 1840.367099,1126.195139"/>
    <poly id="104392614" type="building.yes" color="255,230,230" fill="1" layer="-1.00" shape="520.909632,1261.569860 523.481557,1262.758626 527.073914,1254.644067 548.282262,1265.141593 539.203500,1284.695717 517.361917,1274.713145 515.613051,1273.906566 520.909632,1261.569860"/>
    <poly id="104393529" type="building.apartments" color="255,230,230" fill="1" layer="-1.00" shape="615.939784,1414.509226 603.195768,1411.589332 592.358454,1408.949544 587.781570,1427.368060 592.201435,1430.462888 594.027546,1428.352310 595.220152,1423.407205 605.751410,1426.020457 604.435797,1431.535821 605.870472,1432.560879 602.454227,1437.622458 608.285198,1442.510695 612.890341,1425.961021 615.939784,1414.509226"/>
    <poly id="104393530" type="building.office" color="255,230,230" fill="1" layer="-1.00" shape="554.192339,1453.824170 558.494409,1435.567550 564.477482,1436.935983 568.723708,1419.214752 571.946780,1403.997883 558.319119,1400.719522 553.302060,1399.451894 549.771592,1414.275056 549.473575,1415.516896 554.756685,1416.845335 558.585858,1417.805699 561.295748,1418.490650 559.153106,1427.084640 558.860131,1428.248473 558.293288,1430.520073 551.756230,1428.963739 550.009346,1428.546575 541.302554,1426.482399 540.830015,1428.418061 539.922528,1428.204678 539.137650,1428.010809 537.404332,1427.593345 533.491965,1443.849410 537.014852,1444.772098 535.896004,1449.370610 554.192339,1453.824170"/>
    <poly id="104393531" type="building.commercial" color="255,230,230" fill="1" layer="-1.00" shape="536.161490,1496.434843 537.827293,1498.689886 532.047228,1503.359288 531.040749,1502.057607 527.977733,1504.396182 527.263558,1504.935161 526.613504,1504.092870 494.185306,1462.288369 497.646094,1459.829596 504.649154,1454.609787 507.332310,1458.043848 513.255755,1465.544916 520.478028,1459.808351 518.817429,1457.786878 555.643062,1466.187979 571.479712,1469.917675 536.161490,1496.434843"/>
    <poly id="104393532" type="building.apartments" color="255,230,230" fill="1" layer="-1.00" shape="603.758004,1452.526677 615.898726,1444.554915 639.745548,1428.899391 642.093399,1427.355811 643.594357,1421.324443 629.598477,1417.965094 615.939784,1414.509226 612.890341,1425.961021 628.564503,1429.705663 623.726246,1432.184001 612.618516,1439.609649 608.285198,1442.510695 602.726778,1450.724789 603.758004,1452.526677"/>
    <poly id="104393533" type="building.office" color="255,230,230" fill="1" layer="-1.00" shape="487.354847,1422.448260 475.764282,1419.514010 472.122471,1435.719564 459.101825,1432.572554 459.823967,1429.963633 464.176440,1414.276291 456.980847,1412.412119 473.066518,1379.948637 494.550211,1385.176352 491.430620,1399.244811 477.658180,1395.869763 474.226336,1409.934096 489.855423,1413.779458 487.354847,1422.448260"/>
    <poly id="104393534" type="building.apartments" color="255,230,230" fill="1" layer="-1.00" shape="592.358454,1408.949544 580.852570,1406.157813 571.946780,1403.997883 568.723708,1419.214752 574.230360,1420.827533 575.150141,1416.734229 584.241062,1418.979047 581.714734,1430.752998 580.328894,1430.394516 578.796860,1435.336087 570.322985,1433.366802 568.856109,1439.096985 576.064437,1440.927651 573.692664,1450.505996 576.024694,1450.987977 577.248930,1447.154930 581.388300,1438.616450 587.262948,1429.671961 587.781570,1427.368060 592.358454,1408.949544"/>
    <poly id="1044472586" type="landuse.grass" color="194,194,130" fill="1" layer="-3.00" shape="1393.634049,1387.216977 1393.153375,1387.272156 1392.608683,1387.195224 1392.106541,1386.894795 1391.850589,1386.065903 1390.882038,1382.793621 1390.659511,1381.941732 1390.700206,1381.328809 1391.101192,1380.741273 1391.957199,1380.165893 1398.644060,1376.556796 1405.402713,1372.512137 1411.858686,1368.285035 1416.448214,1364.978439 1417.283260,1364.681719 1418.180722,1364.750827 1419.038840,1365.188019 1419.847254,1366.138185 1426.904685,1380.759086 1427.055171,1381.423405 1426.998929,1381.947651 1426.727453,1382.866140 1426.210395,1383.422866 1425.529535,1383.938715 1424.771704,1384.044550 1393.634049,1387.216977"/>
    <poly id="104786904" type="landuse.grass" color="194,194,130" fill="1" layer="-3.00" shape="1084.822836,860.109038 1090.321019,797.260162 1068.374023,795.389505 1063.124382,857.498459 1084.822836,860.109038"/>
    <poly id="104786906" type="building.yes" color="255,230,230" fill="1" layer="-1.00" shape="1096.719372,963.698626 1160.043616,975.287064 1153.038968,985.379827 1149.351052,990.168840 1144.877803,995.965684 1142.971254,998.445043 1128.872716,997.523478 1117.493173,996.775143 1118.093936,989.606702 1139.601131,991.275908 1140.931583,984.258156 1101.072808,977.533569 1099.555980,978.613319 1097.706913,987.946047 1098.737751,989.124895 1098.536135,990.130870 1097.689699,990.528044 1097.468480,995.228833 1093.981341,995.005982 1090.677384,994.779057 1091.078632,992.678130 1094.937303,973.296927 1096.546148,963.235119 1096.719372,963.698626"/>
    <poly id="104786907" type="building.residential" color="255,230,230" fill="1" layer="-1.00" shape="1125.492308,945.343263 1124.217129,958.201803 1084.527191,950.839311 1087.625836,918.655970 1101.253896,919.777062 1102.449904,906.107959 1115.757631,907.169455 1114.620341,919.513058 1106.802541,918.685502 1105.517831,932.334322 1113.413314,932.993232 1112.952180,938.200101 1112.487519,944.163728 1125.492308,945.343263"/>
    <poly id="104786910" type="building.yes" color="255,230,230" fill="1" layer="-1.00" shape="1203.205663,972.135247 1215.877105,955.573849 1199.781510,942.990191 1200.487433,942.073159 1199.706929,941.467362 1202.781272,937.470964 1203.492447,938.011537 1204.435942,936.788779 1208.392986,939.827684 1209.151706,938.842715 1225.933162,951.744989 1233.192771,942.425606 1243.246549,945.518222 1223.076364,971.637928 1215.588261,981.363002 1203.205663,972.135247"/>
    <poly id="104786915" type="building.yes" color="255,230,230" fill="1" layer="-1.00" shape="1200.718238,965.280280 1187.190559,962.865878 1186.073646,969.111060 1199.576149,971.615039 1200.718238,965.280280"/>
    <poly id="104786916" type="building.office" color="255,230,230" fill="1" layer="-1.00" shape="1229.011704,897.540628 1224.171520,914.628969 1262.252191,925.633699 1267.053125,911.662009 1264.387959,910.552818 1261.833661,908.628849 1259.131447,906.463359 1255.431664,904.920928 1241.120964,900.876881 1229.011704,897.540628"/>
    <poly id="1048127662" type="landuse.religious" color="194,194,130" fill="1" layer="-3.00" shape="1575.524756,808.676124 1525.658235,891.012598 1541.456778,899.720348 1587.999933,925.373163 1591.722980,920.617101 1595.976584,923.571849 1621.373822,887.868417 1633.457094,862.452484 1641.541866,841.921104 1575.524756,808.676124"/>
    <poly id="104991245" type="building.office" color="255,230,230" fill="1" layer="-1.00" shape="1108.137948,1280.716051 1120.940921,1276.525379 1122.811383,1282.192248 1123.249381,1282.048972 1128.680748,1298.586227 1129.516284,1298.311703 1133.658997,1310.927316 1132.783005,1311.213867 1138.235902,1327.806291 1124.489472,1332.296104 1121.694351,1323.812256 1121.108097,1324.003342 1118.195760,1315.132636 1118.795335,1314.930126 1115.191482,1303.960554 1114.645683,1304.139613 1111.762688,1295.368406 1112.375834,1295.165593 1110.955676,1290.824026 1109.587459,1286.681602 1110.052345,1286.526598 1108.137948,1280.716051"/>
    <poly id="104991246" type="building.yes" color="255,230,230" fill="1" layer="-1.00" shape="1009.866292,1325.099802 1008.642595,1321.354779 1025.683684,1315.467079 1026.963127,1319.277630 1009.866292,1325.099802"/>
    <poly id="1051150923" type="landuse.grass" color="194,194,130" fill="1" layer="-3.00" shape="1961.534175,783.081672 1963.651991,782.155846 1962.182435,777.392300 1959.561021,773.032518 1955.262124,768.943446 1943.892353,761.271611 1926.676912,749.556032 1897.068093,729.935452 1886.953226,723.460061 1885.451311,723.381960 1883.847074,723.895882 1882.683949,724.711632 1875.328335,734.977960 1876.832818,737.938044 1883.653844,742.805906 1889.384954,747.809127 1893.584059,752.601386 1898.130691,758.376327 1902.064772,763.463762 1902.424554,764.078961 1903.295773,763.570106 1906.497669,769.007543 1905.633235,769.516247 1907.073248,771.709960 1910.646210,775.815023 1914.439256,778.513154 1918.038547,780.737080 1922.896768,782.488106 1927.223870,783.549827 1929.846239,783.647710 1936.218970,783.896469 1945.169186,784.054950 1952.362786,783.974036 1957.098170,784.158819 1960.202325,783.634067 1961.534175,783.081672"/>
    <poly id="1051150924" type="landuse.grass" color="194,194,130" fill="1" layer="-3.00" shape="1864.159079,750.525134 1869.865914,755.350828 1872.915957,758.521573 1876.237918,762.632157 1885.470303,765.421533 1893.584072,767.968571 1898.235611,770.503070 1901.933309,771.957008 1903.025663,771.932882 1903.608082,771.563937 1903.551008,771.131222 1901.171521,767.277995 1897.197892,760.399893 1892.333602,754.687607 1886.572531,748.327480 1882.631957,745.098505 1876.520734,740.404133 1874.912534,739.816515 1873.177482,739.632292 1871.860728,739.639126 1864.159079,750.525134"/>
    <poly id="1051150925" type="landuse.grass" color="194,194,130" fill="1" layer="-3.00" shape="1869.116183,737.084777 1860.875433,748.149614 1855.592915,745.017074 1847.872171,741.827140 1841.292545,739.591228 1835.320156,738.109709 1827.852242,736.839291 1821.726889,736.729861 1813.188142,737.686394 1806.809148,739.307365 1799.353385,741.964758 1798.196371,742.134995 1797.596992,741.736524 1797.175394,741.089317 1799.188500,733.277759 1801.296251,723.605804 1802.242971,718.221380 1803.183203,712.236210 1804.048652,705.017532 1805.003241,696.917804 1806.270235,688.210282 1807.551947,688.460140 1809.471542,689.007471 1811.954728,690.176618 1814.878343,692.537810 1823.700255,699.475609 1836.484758,709.408194 1850.190917,719.887952 1865.056629,731.543907 1867.336519,733.652289 1869.116183,737.084777"/>
    <poly id="1051150926" type="landuse.grass" color="194,194,130" fill="1" layer="-3.00" shape="1808.093012,682.227861 1807.552968,680.214578 1807.548687,678.178325 1807.895602,676.367988 1808.631963,674.671446 1809.437945,673.974848 1810.610659,673.592844 1811.588184,673.593493 1814.641362,675.673632 1838.880011,691.239560 1877.878726,717.373428 1879.267586,719.401350 1879.320786,723.038893 1877.499698,726.027930 1872.851895,731.961455 1871.386268,731.682261 1868.622426,731.020027 1867.516302,730.421319 1858.642837,723.295415 1859.382101,722.344365 1854.450458,718.503036 1853.711193,719.454087 1840.419016,709.276743 1841.026023,708.484399 1835.820005,704.515620 1835.212999,705.307965 1821.858058,695.365735 1822.695653,694.256720 1817.510943,690.331999 1816.673103,691.429893 1810.054108,685.266854 1808.622632,683.462444 1808.093012,682.227861"/>
    <poly id="1051150927" type="landuse.grass" color="194,194,130" fill="1" layer="-3.00" shape="1795.202928,853.599443 1808.791239,832.045360 1811.277305,833.347972 1813.890214,834.247187 1817.865868,835.071773 1821.794666,835.619207 1825.259792,835.765172 1829.303390,835.364231 1833.424866,834.494213 1837.580072,833.000309 1841.542999,831.098937 1847.420362,837.500951 1854.369527,847.250947 1856.338536,851.881025 1852.192874,854.420696 1848.584636,856.091671 1844.086965,858.060493 1839.783648,859.301732 1835.439034,860.210059 1830.057742,860.896494 1823.753635,861.291760 1814.219130,860.489893 1807.284580,858.773746 1801.734495,856.737686 1795.202928,853.599443"/>
    <poly id="1051150928" type="landuse.grass" color="194,194,130" fill="1" layer="-3.00" shape="1766.321475,792.891639 1769.439348,789.918392 1772.451807,786.168547 1774.309046,783.590390 1776.176472,781.779811 1778.031225,781.238059 1780.136828,781.603223 1781.333367,782.300060 1792.889007,790.078692 1791.244211,793.976329 1790.602581,797.807276 1790.571492,802.848761 1791.015080,806.333016 1791.784683,810.132764 1793.153757,814.642552 1794.445974,817.518284 1796.530584,821.233322 1798.692473,824.145467 1801.022404,826.675559 1804.271468,829.329993 1790.956523,850.967066 1789.104042,849.461287 1786.319640,847.252821 1782.237476,843.759995 1778.740413,840.020556 1775.410546,835.554128 1772.115132,830.497179 1769.626747,825.099685 1767.444451,819.116789 1765.943229,812.929664 1765.007192,805.595027 1765.012286,799.686164 1765.476142,793.956326 1766.321475,792.891639"/>
    <poly id="1051150930" type="landuse.grass" color="194,194,130" fill="1" layer="-3.00" shape="1708.781094,811.100595 1701.604813,826.381779 1702.594764,833.080942 1703.391356,834.109310 1704.309861,834.511835 1706.772717,834.457342 1708.795868,835.391806 1739.331627,812.516735 1743.354939,809.356529 1751.171121,801.516745 1750.953065,800.865040 1750.383327,799.965178 1749.011058,798.382028 1748.038907,797.702491 1746.616111,797.210963 1745.013078,796.856952 1739.690367,796.818896 1736.382800,797.659861 1733.858682,798.628157 1729.793958,801.143886 1725.870413,804.824893 1722.674499,807.644109 1719.560287,809.860630 1715.977720,811.464369 1712.799113,811.690480 1709.970255,811.463750 1708.781094,811.100595"/>
    <poly id="1051150931" type="natural.scrub" color="140,196,107" fill="1" layer="-4.00" shape="1714.942865,798.746170 1718.621107,791.954855 1719.624234,792.500170 1722.416908,787.408716 1721.413534,786.852279 1722.581509,784.723325 1723.571068,785.268941 1726.292070,780.312607 1725.302511,779.766990 1726.307266,777.930966 1727.612863,778.647633 1730.425171,773.522368 1729.119572,772.805700 1730.143947,770.935860 1731.002874,771.406474 1733.854668,766.224699 1732.995741,765.754085 1733.903792,763.842308 1736.186381,763.001759 1739.267947,764.524843 1741.830524,766.215194 1744.117771,767.733595 1748.135722,771.695171 1747.301744,772.659461 1746.345561,774.850489 1744.933955,776.706636 1743.510154,778.318245 1742.396279,779.210834 1741.584420,779.640512 1739.583887,779.729271 1733.824147,780.802519 1732.393358,781.791141 1729.577884,788.307425 1726.875978,791.672089 1724.861903,795.444387 1723.751973,796.514935 1721.734956,798.006143 1720.290500,798.683499 1718.748492,798.940165 1714.942865,798.746170"/>
    <poly id="1051150932" type="man_made.embankment" color="255,230,230" fill="0" layer="-1.00" shape="1712.197207,803.814333 1714.942865,798.746170 1718.621107,791.954855 1719.624234,792.500170 1722.416908,787.408716 1721.413534,786.852279 1722.581509,784.723325 1723.571068,785.268941 1726.292070,780.312607 1725.302511,779.766990 1726.307266,777.930966 1727.612863,778.647633 1730.425171,773.522368 1729.119572,772.805700 1730.143947,770.935860 1731.002874,771.406474 1733.854668,766.224699 1732.995741,765.754085 1733.903792,763.842308 1736.186381,763.001759 1739.267947,764.524843 1741.830524,766.215194"/>
    <poly id="1051150934" type="landuse.grass" color="194,194,130" fill="1" layer="-3.00" shape="1748.135722,771.695171 1749.260198,772.816443 1750.944678,774.704261 1754.753785,780.272833 1756.846270,784.955783 1759.375085,793.100891 1754.572259,797.847313 1752.676743,797.466386 1750.745725,796.707907 1748.926357,795.780045 1746.437366,795.267588 1742.557495,794.785895 1739.988522,794.953994 1736.722051,795.504732 1733.243985,796.616532 1729.538256,798.790493 1724.538354,803.218605 1722.894360,805.002006 1721.069148,806.878437 1719.387437,808.184187 1717.456063,809.250654 1715.356934,810.098282 1712.586396,810.359875 1710.916501,810.051865 1709.335194,809.452579 1709.588621,808.634657 1712.197207,803.814333 1714.942865,798.746170 1718.748492,798.940165 1720.290500,798.683499 1721.734956,798.006143 1723.751973,796.514935 1724.861903,795.444387 1726.875978,791.672089 1729.577884,788.307425 1732.393358,781.791141 1733.824147,780.802519 1739.583887,779.729271 1741.584420,779.640512 1742.396279,779.210834 1743.510154,778.318245 1744.933955,776.706636 1746.345561,774.850489 1747.301744,772.659461 1748.135722,771.695171"/>
    <poly id="1051150936" type="landuse.flowerbed" color="194,194,130" fill="1" layer="-3.00" shape="1746.106827,765.898059 1742.796238,763.534340 1740.177866,762.390474 1739.599345,759.866180 1740.940542,757.588741 1743.143566,758.675028 1746.606782,758.731961 1748.501410,757.844361 1749.746067,756.726329 1750.478275,755.764290 1751.269477,754.400353 1751.632537,752.400485 1751.445738,751.013668 1751.019399,749.231555 1750.115763,747.660295 1748.605672,746.291617 1747.529381,745.814679 1749.224280,743.262358 1751.353391,742.848060 1753.490046,744.002585 1755.867122,745.285325 1759.067724,746.972703 1758.733707,748.137359 1757.970728,749.856753 1757.009430,752.737803 1756.342916,754.521830 1755.463080,756.789061 1754.415734,758.848572 1753.271824,760.531881 1751.421657,762.509001 1748.626045,764.707327 1746.106827,765.898059"/>
    <poly id="1051150937" type="man_made.embankment" color="255,230,230" fill="0" layer="-1.00" shape="1742.796238,763.534340 1740.177866,762.390474 1739.599345,759.866180 1740.940542,757.588741 1743.143566,758.675028 1746.606782,758.731961 1748.501410,757.844361 1749.746067,756.726329 1750.478275,755.764290 1751.269477,754.400353 1751.632537,752.400485 1751.445738,751.013668 1751.019399,749.231555 1750.115763,747.660295 1748.605672,746.291617 1747.529381,745.814679 1749.224280,743.262358 1751.353391,742.848060 1753.490046,744.002585"/>
    <poly id="1051150938" type="landuse.grass" color="194,194,130" fill="1" layer="-3.00" shape="1759.067724,746.972703 1762.622900,748.118118 1767.228351,749.485117 1771.201623,750.198444 1777.192741,750.377543 1780.397545,750.106386 1784.574203,749.580065 1786.343572,749.474180 1787.674787,750.735548 1784.964525,756.181221 1778.941793,766.852210 1773.995296,775.540953 1771.099314,780.567894 1766.247410,786.472658 1763.249161,789.944003 1762.328439,789.441367 1760.524321,789.203075 1759.150969,783.580631 1756.992750,778.687710 1753.832240,773.594405 1750.469573,769.796373 1746.106827,765.898059 1748.626045,764.707327 1751.421657,762.509001 1753.271824,760.531881 1754.415734,758.848572 1755.463080,756.789061 1756.342916,754.521830 1757.009430,752.737803 1757.970728,749.856753 1758.733707,748.137359 1759.067724,746.972703"/>
    <poly id="1051150939" type="man_made.embankment" color="255,230,230" fill="0" layer="-1.00" shape="1754.625393,741.317982 1750.404391,738.918754 1749.747858,737.163987 1750.654795,735.508173 1751.472525,735.957447 1754.356319,730.685958 1753.538835,730.247806 1754.419864,728.648204 1755.189363,729.065162 1758.132263,723.703348 1757.362517,723.275267 1758.360758,721.450522 1759.123227,721.856508 1761.935602,716.731262 1761.172887,716.314153 1762.086617,714.658191 1762.869933,715.085973 1765.864915,709.622864 1765.081599,709.195082 1765.943020,707.629299 1766.726336,708.057081 1769.955993,702.154809 1769.172676,701.727027 1775.522539,692.339596 1782.180355,682.756198 1794.456350,665.381700"/>
    <poly id="1051150940" type="landuse.grass" color="194,194,130" fill="1" layer="-3.00" shape="1799.743017,665.932486 1803.467375,668.587543 1803.896501,669.267967 1802.048224,682.695307 1797.885815,710.584028 1795.744212,725.787143 1790.222510,744.692580 1784.729496,746.472035 1780.148695,747.140822 1775.962936,747.255628 1771.132269,747.061997 1767.183039,746.515053 1761.017357,744.581667 1757.526235,742.956351 1754.625393,741.317982 1750.404391,738.918754 1749.747858,737.163987 1750.654795,735.508173 1751.472525,735.957447 1754.356319,730.685958 1753.538835,730.247806 1754.419864,728.648204 1755.189363,729.065162 1758.132263,723.703348 1757.362517,723.275267 1758.360758,721.450522 1759.123227,721.856508 1761.935602,716.731262 1761.172887,716.314153 1762.086617,714.658191 1762.869933,715.085973 1765.864915,709.622864 1765.081599,709.195082 1765.943020,707.629299 1766.726336,708.057081 1769.955993,702.154809 1769.172676,701.727027 1775.522539,692.339596 1782.180355,682.756198 1794.456350,665.381700 1798.238581,667.890815 1799.743017,665.932486"/>
    <poly id="1051153671" type="landuse.grass" color="194,194,130" fill="1" layer="-3.00" shape="1932.429625,816.105447 1927.461264,809.672135 1922.655203,802.289399 1919.154630,796.235404 1915.309468,789.332197 1912.213327,784.994049 1906.100150,778.363487 1900.312298,773.862242 1893.100491,770.660999 1887.579509,768.101200 1881.620154,766.285511 1879.018280,765.886756 1881.287017,769.642271 1884.473927,775.936849 1885.933733,780.255487 1887.365111,785.131132 1889.241329,793.858222 1889.715159,799.022080 1889.851824,807.053173 1888.433799,815.074098 1887.207721,819.185002 1892.599513,820.200919 1901.623901,820.646997 1912.441391,820.218924 1919.839187,819.243244 1927.217830,817.400048 1932.429625,816.105447"/>
    <poly id="1051153672" type="natural.scrub" color="140,196,107" fill="1" layer="-4.00" shape="1931.730604,793.977004 1931.870650,797.245420 1932.477253,799.201607 1934.320494,801.519955 1936.170890,802.625241 1938.545004,803.162585 1941.608436,802.638719 1944.069871,800.982006 1945.470093,798.914747 1946.088568,795.874393 1945.853349,794.444128 1945.784714,792.565083 1946.765095,793.311242 1948.687227,796.128595 1949.077668,797.210478 1949.316839,799.742285 1948.906456,801.754308 1947.769857,803.771236 1945.894858,805.548532 1942.295393,807.619834 1938.984767,808.015626 1937.892420,808.039743 1935.556807,807.401401 1931.554386,805.364406 1930.344950,804.389628 1929.037152,802.649220 1928.437487,800.392435 1928.922957,797.477418 1929.756381,796.179345 1931.730604,793.977004"/>