<?xml version="1.0" encoding="UTF-8"?>

<!-- generated on 2024-01-24 13:21:00.534014 by osmWebWizard.py v1_14_1+0000-f654d7b963e
<configuration>
    <end value="3600"/>
    <fringe-factor value="5.0"/>
    <fringe-start-attributes value="departSpeed=&quot;max&quot;"/>
    <min-distance value="600.0"/>
    <net-file value="C:\Users\Joseph\Masters-Dissertation\2024-01-24-13-07-57\osm.net.xml"/>
    <period value="0.28677465548685066"/>
    <route-file value="C:\Users\Joseph\Masters-Dissertation\2024-01-24-13-07-57\osm.bus.rou.xml"/>
    <trip-attributes value="departLane=&quot;best&quot;"/>
    <output-trip-file value="C:\Users\Joseph\Masters-Dissertation\2024-01-24-13-07-57\osm.bus.trips.xml"/>
    <prefix value="bus"/>
    <validate value="True"/>
    <vclass value="bus"/>
    <vehicle-class value="bus"/>
</configuration>
-->

<!-- generated on 2024-01-24 13:19:31 by Eclipse SUMO duarouter Version 1.14.1
<configuration xmlns:xsi="http://www.w3.org/2001/XMLSchema-instance" xsi:noNamespaceSchemaLocation="http://sumo.dlr.de/xsd/duarouterConfiguration.xsd">

    <input>
        <net-file value="C:\Users\Joseph\Masters-Dissertation\2024-01-24-13-07-57\osm.net.xml"/>
        <route-files value="C:\Users\Joseph\Masters-Dissertation\2024-01-24-13-07-57\osm.bus.trips.xml"/>
    </input>

    <output>
        <output-file value="C:\Users\Joseph\Masters-Dissertation\2024-01-24-13-07-57\osm.bus.trips.xml.tmp"/>
        <alternatives-output value="NUL"/>
        <write-trips value="true"/>
    </output>

    <time>
        <begin value="0"/>
        <end value="3600"/>
    </time>

    <report>
        <no-warnings value="true"/>
        <ignore-errors value="true"/>
        <no-step-log value="true"/>
    </report>

</configuration>
-->

<routes xmlns:xsi="http://www.w3.org/2001/XMLSchema-instance" xsi:noNamespaceSchemaLocation="http://sumo.dlr.de/xsd/routes_file.xsd">
    <vType id="bus_bus" vClass="bus"/>
    <trip id="bus0" type="bus_bus" depart="0.00" departLane="best" from="623373539" to="-22981992"/>
    <trip id="bus1" type="bus_bus" depart="0.29" departLane="best" from="1207690158" to="-75114255#2"/>
    <trip id="bus2" type="bus_bus" depart="0.57" departLane="best" from="636875355" to="632258752#0"/>
    <trip id="bus3" type="bus_bus" depart="0.86" departLane="best" from="682799612#0" to="-630445720"/>
    <trip id="bus6" type="bus_bus" depart="1.72" departLane="best" from="-22981992" to="-671803833#1"/>
    <trip id="bus7" type="bus_bus" depart="2.01" departLane="best" from="627701664#0" to="479761056"/>
    <trip id="bus8" type="bus_bus" depart="2.29" departLane="best" from="-738279027#1" to="538223034"/>
    <trip id="bus9" type="bus_bus" depart="2.58" departLane="best" from="646787669" to="-1123072006#2"/>
    <trip id="bus10" type="bus_bus" depart="2.87" departLane="best" departSpeed="max" from="646646028" to="633433734#1"/>
    <trip id="bus11" type="bus_bus" depart="3.15" departLane="best" from="22803783" to="-646700201"/>
    <trip id="bus12" type="bus_bus" depart="3.44" departLane="best" from="75516232" to="22931679#0"/>
    <trip id="bus13" type="bus_bus" depart="3.73" departLane="best" from="-631850947#1" to="-632735142#2"/>
    <trip id="bus14" type="bus_bus" depart="4.01" departLane="best" from="654774449#0" to="541225968#0"/>
    <trip id="bus15" type="bus_bus" depart="4.30" departLane="best" from="646666797" to="635716873#0"/>
    <trip id="bus16" type="bus_bus" depart="4.59" departLane="best" from="478326888" to="787017477"/>
    <trip id="bus17" type="bus_bus" depart="4.88" departLane="best" from="32562453" to="480859373#0"/>
    <trip id="bus18" type="bus_bus" depart="5.16" departLane="best" from="649494321" to="585722596#0"/>
    <trip id="bus19" type="bus_bus" depart="5.45" departLane="best" from="656784550#0" to="536420713#0"/>
    <trip id="bus21" type="bus_bus" depart="6.02" departLane="best" from="-750055154" to="167825606#0"/>
    <trip id="bus22" type="bus_bus" depart="6.31" departLane="best" from="-538427511" to="-766852307#1"/>
    <trip id="bus23" type="bus_bus" depart="6.60" departLane="best" from="-632858535" to="129930202"/>
    <trip id="bus24" type="bus_bus" depart="6.88" departLane="best" from="620514878" to="302094707#0"/>
    <trip id="bus25" type="bus_bus" depart="7.17" departLane="best" from="302094701#0" to="-726141587"/>
    <trip id="bus27" type="bus_bus" depart="7.74" departLane="best" from="627331709#0" to="545570812#0"/>
    <trip id="bus28" type="bus_bus" depart="8.03" departLane="best" from="-647084146" to="635691658"/>
    <trip id="bus29" type="bus_bus" depart="8.32" departLane="best" from="-646820682" to="33261467#0"/>
    <trip id="bus31" type="bus_bus" depart="8.89" departLane="best" departSpeed="max" from="481854729" to="632716922"/>
    <trip id="bus32" type="bus_bus" depart="9.18" departLane="best" from="652263875" to="644351768#0"/>
    <trip id="bus33" type="bus_bus" depart="9.46" departLane="best" from="-750752704#1" to="-23960797#2"/>
    <trip id="bus34" type="bus_bus" depart="9.75" departLane="best" from="174886202#0" to="1202372657"/>
    <trip id="bus36" type="bus_bus" depart="10.32" departLane="best" from="666805283#0" to="176204511#0"/>
    <trip id="bus37" type="bus_bus" depart="10.61" departLane="best" from="627992335#0" to="363691730"/>
    <trip id="bus38" type="bus_bus" depart="10.90" departLane="best" from="728924856" to="464966309#0"/>
    <trip id="bus40" type="bus_bus" depart="11.47" departLane="best" departSpeed="max" from="49427030" to="1159643737"/>
    <trip id="bus41" type="bus_bus" depart="11.76" departLane="best" from="537156676" to="703157041#0"/>
    <trip id="bus42" type="bus_bus" depart="12.04" departLane="best" from="358462403" to="-746640122"/>
    <trip id="bus43" type="bus_bus" depart="12.33" departLane="best" departSpeed="max" from="947210815#0" to="475952928#0"/>
    <trip id="bus46" type="bus_bus" depart="13.19" departLane="best" from="645280595#0" to="445716789#0"/>
    <trip id="bus47" type="bus_bus" depart="13.48" departLane="best" from="-465600089#2" to="33298275#0"/>
    <trip id="bus48" type="bus_bus" depart="13.77" departLane="best" from="933758069#0" to="477954429"/>
    <trip id="bus49" type="bus_bus" depart="14.05" departLane="best" from="785003123" to="658171028#0"/>
    <trip id="bus51" type="bus_bus" depart="14.63" departLane="best" from="632404753" to="479176729"/>
    <trip id="bus52" type="bus_bus" depart="14.91" departLane="best" from="111293491#0" to="624953414"/>
    <trip id="bus53" type="bus_bus" depart="15.20" departLane="best" from="-634855368#2" to="454189362"/>
    <trip id="bus54" type="bus_bus" depart="15.49" departLane="best" from="464307234#0" to="753827847#0"/>
    <trip id="bus55" type="bus_bus" depart="15.77" departLane="best" from="666654515" to="1161269781#0"/>
    <trip id="bus56" type="bus_bus" depart="16.06" departLane="best" from="474670379" to="-660070609"/>
    <trip id="bus57" type="bus_bus" depart="16.35" departLane="best" from="726189368" to="666029042"/>
    <trip id="bus58" type="bus_bus" depart="16.63" departLane="best" from="167810325#0" to="624293828"/>
    <trip id="bus59" type="bus_bus" depart="16.92" departLane="best" from="542167897#0" to="-646629771"/>
    <trip id="bus60" type="bus_bus" depart="17.21" departLane="best" from="640209619" to="479325842#0"/>
    <trip id="bus61" type="bus_bus" depart="17.49" departLane="best" from="644275702#0" to="478148685"/>
    <trip id="bus63" type="bus_bus" depart="18.07" departLane="best" from="-174262801#2" to="74607479"/>
    <trip id="bus64" type="bus_bus" depart="18.35" departLane="best" from="667069115" to="651037048#0"/>
    <trip id="bus65" type="bus_bus" depart="18.64" departLane="best" from="173792008#0" to="-464820680#1"/>
    <trip id="bus66" type="bus_bus" depart="18.93" departLane="best" from="666949794" to="75141905#1"/>
    <trip id="bus67" type="bus_bus" depart="19.21" departLane="best" from="-624302151#1" to="472797894#0"/>
    <trip id="bus68" type="bus_bus" depart="19.50" departLane="best" from="-475116741#1" to="640276729"/>
    <trip id="bus69" type="bus_bus" depart="19.79" departLane="best" from="641077330#0" to="-643452202#1"/>
    <trip id="bus70" type="bus_bus" depart="20.07" departLane="best" from="466875041" to="480472258"/>
    <trip id="bus71" type="bus_bus" depart="20.36" departLane="best" from="110858929" to="666579006"/>
    <trip id="bus72" type="bus_bus" depart="20.65" departLane="best" from="445283026#0" to="-734896637#1"/>
    <trip id="bus74" type="bus_bus" depart="21.22" departLane="best" from="-670354695" to="175959409"/>
    <trip id="bus75" type="bus_bus" depart="21.51" departLane="best" from="933113682" to="627949755"/>
    <trip id="bus76" type="bus_bus" depart="21.79" departLane="best" from="45065755#0" to="476431846"/>
    <trip id="bus77" type="bus_bus" depart="22.08" departLane="best" from="-639993268#1" to="-751754700"/>
    <trip id="bus78" type="bus_bus" depart="22.37" departLane="best" from="22701153#0" to="538186201"/>
    <trip id="bus79" type="bus_bus" depart="22.66" departLane="best" from="-751470529" to="-747788799#1"/>
    <trip id="bus80" type="bus_bus" depart="22.94" departLane="best" from="-475364578#1" to="620264527"/>
    <trip id="bus81" type="bus_bus" depart="23.23" departLane="best" from="-750689294#2" to="719660342"/>
    <trip id="bus82" type="bus_bus" depart="23.52" departLane="best" from="655682840#0" to="-478162369#5"/>
    <trip id="bus83" type="bus_bus" depart="23.80" departLane="best" from="-765330651" to="631708005"/>
    <trip id="bus84" type="bus_bus" depart="24.09" departLane="best" from="-725724952#1" to="-643896898"/>
    <trip id="bus85" type="bus_bus" depart="24.38" departLane="best" from="74746275" to="532990228"/>
    <trip id="bus87" type="bus_bus" depart="24.95" departLane="best" from="646695827#0" to="-667072216"/>
    <trip id="bus88" type="bus_bus" depart="25.24" departLane="best" from="-632563157#1" to="44956328"/>
    <trip id="bus89" type="bus_bus" depart="25.52" departLane="best" from="445716656#0" to="465523902#0"/>
    <trip id="bus90" type="bus_bus" depart="25.81" departLane="best" from="635635152#0" to="632026859#0"/>
    <trip id="bus91" type="bus_bus" depart="26.10" departLane="best" from="822108654" to="-632919873"/>
    <trip id="bus92" type="bus_bus" depart="26.38" departLane="best" from="36499239#0" to="231414427"/>
    <trip id="bus93" type="bus_bus" depart="26.67" departLane="best" from="656758321#0" to="1043801534#1"/>
    <trip id="bus94" type="bus_bus" depart="26.96" departLane="best" from="-665785954" to="464307259"/>
    <trip id="bus95" type="bus_bus" depart="27.24" departLane="best" from="445282966#0" to="133267679"/>
    <trip id="bus96" type="bus_bus" depart="27.53" departLane="best" from="-933847173#1" to="74484454"/>
    <trip id="bus97" type="bus_bus" depart="27.82" departLane="best" from="463977274#0" to="659861094"/>
    <trip id="bus98" type="bus_bus" depart="28.10" departLane="best" from="480269038" to="-414218871#1"/>
    <trip id="bus99" type="bus_bus" depart="28.39" departLane="best" from="99446925#3" to="651981596"/>
    <trip id="bus100" type="bus_bus" depart="28.68" departLane="best" from="780408398" to="74549033"/>
    <trip id="bus101" type="bus_bus" depart="28.96" departLane="best" from="654997450" to="-647082041#1"/>
    <trip id="bus102" type="bus_bus" depart="29.25" departLane="best" from="472105373" to="-737660693"/>
    <trip id="bus103" type="bus_bus" depart="29.54" departLane="best" from="363691730" to="-464827107#1"/>
    <trip id="bus104" type="bus_bus" depart="29.82" departLane="best" from="32741646#0" to="824411067"/>
    <trip id="bus105" type="bus_bus" depart="30.11" departLane="best" from="110858933#0" to="644924526"/>
    <trip id="bus106" type="bus_bus" depart="30.40" departLane="best" from="46431729#0" to="446035347#0"/>
    <trip id="bus107" type="bus_bus" depart="30.68" departLane="best" from="75521619" to="933228329"/>
    <trip id="bus108" type="bus_bus" depart="30.97" departLane="best" from="481622752#2" to="634699994"/>
    <trip id="bus109" type="bus_bus" depart="31.26" departLane="best" from="-646324838" to="173767880#0"/>
    <trip id="bus110" type="bus_bus" depart="31.55" departLane="best" from="780095711" to="536913666#0"/>
    <trip id="bus111" type="bus_bus" depart="31.83" departLane="best" from="479326882" to="639605702#0"/>
    <trip id="bus112" type="bus_bus" depart="32.12" departLane="best" from="-464205876#1" to="537909421"/>
    <trip id="bus113" type="bus_bus" depart="32.41" departLane="best" from="474908502#0" to="655156946"/>
    <trip id="bus114" type="bus_bus" depart="32.69" departLane="best" from="-646646036" to="763947021"/>
    <trip id="bus115" type="bus_bus" depart="32.98" departLane="best" from="-538747212" to="-666007093"/>
    <trip id="bus116" type="bus_bus" depart="33.27" departLane="best" from="538624668#0" to="632145201"/>
    <trip id="bus117" type="bus_bus" depart="33.55" departLane="best" from="-753166851#1" to="-640171794"/>
    <trip id="bus118" type="bus_bus" depart="33.84" departLane="best" from="675389640#1" to="1009039141#0"/>
    <trip id="bus119" type="bus_bus" depart="34.13" departLane="best" from="538624612" to="585984913#0"/>
    <trip id="bus120" type="bus_bus" depart="34.41" departLane="best" from="443122389#0" to="537719431#0"/>
    <trip id="bus121" type="bus_bus" depart="34.70" departLane="best" from="476720121" to="747402015"/>
    <trip id="bus122" type="bus_bus" depart="34.99" departLane="best" from="-672886996#1" to="634508248#0"/>
    <trip id="bus123" type="bus_bus" depart="35.27" departLane="best" from="-766303754" to="363701383"/>
    <trip id="bus124" type="bus_bus" depart="35.56" departLane="best" from="631719752#0" to="174035873"/>
    <trip id="bus125" type="bus_bus" depart="35.85" departLane="best" from="174886223" to="639890707"/>
    <trip id="bus126" type="bus_bus" depart="36.13" departLane="best" from="-477811640" to="464836701"/>
    <trip id="bus127" type="bus_bus" depart="36.42" departLane="best" from="99446328#0" to="933758069#0"/>
    <trip id="bus128" type="bus_bus" depart="36.71" departLane="best" from="-477937038#1" to="-737601199"/>
    <trip id="bus129" type="bus_bus" depart="36.99" departLane="best" from="110858933#0" to="74703902#0"/>
    <trip id="bus130" type="bus_bus" depart="37.28" departLane="best" from="667266417" to="667221892"/>
    <trip id="bus131" type="bus_bus" depart="37.57" departLane="best" from="301886826" to="-646804130#1"/>
    <trip id="bus132" type="bus_bus" depart="37.85" departLane="best" from="650982065" to="633802293"/>
    <trip id="bus133" type="bus_bus" depart="38.14" departLane="best" from="545311627" to="826503719#0"/>
    <trip id="bus134" type="bus_bus" depart="38.43" departLane="best" from="627969440" to="-121516436"/>
    <trip id="bus135" type="bus_bus" depart="38.71" departLane="best" from="646882518#0" to="173954645"/>
    <trip id="bus136" type="bus_bus" depart="39.00" departLane="best" from="-643880118" to="-639739668"/>
    <trip id="bus137" type="bus_bus" depart="39.29" departLane="best" from="-634136801" to="481622750#0"/>
    <trip id="bus138" type="bus_bus" depart="39.57" departLane="best" from="117055178" to="541956076#0"/>
    <trip id="bus139" type="bus_bus" depart="39.86" departLane="best" from="634341758" to="-681351531"/>
    <trip id="bus140" type="bus_bus" depart="40.15" departLane="best" from="620258587" to="116591370"/>
    <trip id="bus141" type="bus_bus" depart="40.44" departLane="best" from="472797894#2" to="719550815"/>
    <trip id="bus142" type="bus_bus" depart="40.72" departLane="best" departSpeed="max" from="652559895" to="-632343869"/>
    <trip id="bus143" type="bus_bus" depart="41.01" departLane="best" from="445716656#0" to="129848770#0"/>
    <trip id="bus144" type="bus_bus" depart="41.30" departLane="best" from="-1108440803" to="643466668#0"/>
    <trip id="bus145" type="bus_bus" depart="41.58" departLane="best" from="620546634" to="1137091832#2"/>
    <trip id="bus146" type="bus_bus" depart="41.87" departLane="best" from="638126142" to="480724598#0"/>
    <trip id="bus147" type="bus_bus" depart="42.16" departLane="best" from="445716781" to="-1227298059"/>
    <trip id="bus148" type="bus_bus" depart="42.44" departLane="best" from="-480164807#3" to="669885438"/>
    <trip id="bus149" type="bus_bus" depart="42.73" departLane="best" departSpeed="max" from="711920246" to="479773089#0"/>
    <trip id="bus150" type="bus_bus" depart="43.02" departLane="best" from="651085697" to="537159965#0"/>
    <trip id="bus151" type="bus_bus" depart="43.30" departLane="best" from="-645339512" to="-643416997"/>
    <trip id="bus152" type="bus_bus" depart="43.59" departLane="best" from="174023711#0" to="704899270"/>
    <trip id="bus153" type="bus_bus" depart="43.88" departLane="best" from="646152321#0" to="658171026"/>
    <trip id="bus154" type="bus_bus" depart="44.16" departLane="best" from="701476972" to="-726843096"/>
    <trip id="bus155" type="bus_bus" depart="44.45" departLane="best" from="-933822429" to="-633804616"/>
    <trip id="bus156" type="bus_bus" depart="44.74" departLane="best" from="644417772" to="670368030#0"/>
    <trip id="bus157" type="bus_bus" depart="45.02" departLane="best" from="37523830#5" to="585990875"/>
    <trip id="bus158" type="bus_bus" depart="45.31" departLane="best" from="-646320147" to="74628616"/>
    <trip id="bus159" type="bus_bus" depart="45.60" departLane="best" from="661061203" to="793663080"/>
    <trip id="bus160" type="bus_bus" depart="45.88" departLane="best" from="646808107" to="669055733"/>
    <trip id="bus161" type="bus_bus" depart="46.17" departLane="best" from="-22293549#1" to="637829163"/>
    <trip id="bus162" type="bus_bus" depart="46.46" departLane="best" from="218215382#0" to="74666535"/>
    <trip id="bus163" type="bus_bus" depart="46.74" departLane="best" from="646328323" to="661340801#0"/>
    <trip id="bus164" type="bus_bus" depart="47.03" departLane="best" from="646808107" to="1184263948#1"/>
    <trip id="bus165" type="bus_bus" depart="47.32" departLane="best" from="644962338#0" to="-634721254#1"/>
    <trip id="bus166" type="bus_bus" depart="47.60" departLane="best" from="666022180" to="655685774"/>
    <trip id="bus167" type="bus_bus" depart="47.89" departLane="best" from="-740145964" to="646955777"/>
    <trip id="bus168" type="bus_bus" depart="48.18" departLane="best" from="464814549#0" to="174552497"/>
    <trip id="bus169" type="bus_bus" depart="48.46" departLane="best" from="646140986" to="-752892021"/>
    <trip id="bus170" type="bus_bus" depart="48.75" departLane="best" departSpeed="max" from="-195694178#1" to="-669646104#1"/>
    <trip id="bus171" type="bus_bus" depart="49.04" departLane="best" from="200159309#0" to="661351281"/>
    <trip id="bus172" type="bus_bus" depart="49.33" departLane="best" from="775198984" to="139670195#0"/>
    <trip id="bus173" type="bus_bus" depart="49.61" departLane="best" from="624160075" to="37098239#0"/>
    <trip id="bus174" type="bus_bus" depart="49.90" departLane="best" from="801500231" to="479169488"/>
    <trip id="bus175" type="bus_bus" depart="50.19" departLane="best" from="74892277" to="-639726194#1"/>
    <trip id="bus176" type="bus_bus" depart="50.47" departLane="best" from="783823670" to="-660070608"/>
    <trip id="bus177" type="bus_bus" depart="50.76" departLane="best" from="766166629#0" to="117055178"/>
    <trip id="bus178" type="bus_bus" depart="51.05" departLane="best" from="-634310852#1" to="45418021"/>
    <trip id="bus179" type="bus_bus" depart="51.33" departLane="best" from="635586990#0" to="175959588"/>
    <trip id="bus180" type="bus_bus" depart="51.62" departLane="best" from="541225966#0" to="476147274"/>
    <trip id="bus181" type="bus_bus" depart="51.91" departLane="best" from="33261467#1" to="536039203"/>
    <trip id="bus182" type="bus_bus" depart="52.19" departLane="best" from="1024157355#1" to="634067015"/>
    <trip id="bus183" type="bus_bus" depart="52.48" departLane="best" from="-1050139157" to="74542170#1"/>
    <trip id="bus184" type="bus_bus" depart="52.77" departLane="best" from="479170042" to="634782375#0"/>
    <trip id="bus185" type="bus_bus" depart="53.05" departLane="best" from="638291439" to="631841360"/>
    <trip id="bus186" type="bus_bus" depart="53.34" departLane="best" from="28173319#0" to="-477907935"/>
    <trip id="bus187" type="bus_bus" depart="53.63" departLane="best" from="630388147" to="22674809"/>
    <trip id="bus188" type="bus_bus" depart="53.91" departLane="best" from="174765816#0" to="655020601"/>
    <trip id="bus189" type="bus_bus" depart="54.20" departLane="best" from="634551773" to="174035876"/>
    <trip id="bus190" type="bus_bus" depart="54.49" departLane="best" from="174049653#0" to="397426416#0"/>
    <trip id="bus191" type="bus_bus" depart="54.77" departLane="best" from="36499234" to="173767826#0"/>
    <trip id="bus192" type="bus_bus" depart="55.06" departLane="best" from="-641128533" to="445716734#0"/>
    <trip id="bus193" type="bus_bus" depart="55.35" departLane="best" from="74957629#0" to="632266200#0"/>
    <trip id="bus194" type="bus_bus" depart="55.63" departLane="best" from="711254027" to="583971415"/>
    <trip id="bus195" type="bus_bus" depart="55.92" departLane="best" from="170867835#0" to="480271940"/>
    <trip id="bus196" type="bus_bus" depart="56.21" departLane="best" from="-1009039141#1" to="166516198"/>
    <trip id="bus197" type="bus_bus" depart="56.49" departLane="best" from="447713234#0" to="536913705#0"/>
    <trip id="bus198" type="bus_bus" depart="56.78" departLane="best" from="627983391" to="465463726#0"/>
    <trip id="bus199" type="bus_bus" depart="57.07" departLane="best" from="463546861#0" to="-737660690#1"/>
    <trip id="bus200" type="bus_bus" depart="57.35" departLane="best" from="465796008" to="711578261"/>
    <trip id="bus201" type="bus_bus" depart="57.64" departLane="best" from="646149472#0" to="-648935742"/>
    <trip id="bus202" type="bus_bus" depart="57.93" departLane="best" from="-597592071" to="476395133"/>
    <trip id="bus203" type="bus_bus" depart="58.22" departLane="best" from="617971429" to="22812112"/>
    <trip id="bus204" type="bus_bus" depart="58.50" departLane="best" from="646955778" to="639858114#0"/>
    <trip id="bus205" type="bus_bus" depart="58.79" departLane="best" from="631774300" to="-751754699#1"/>
    <trip id="bus206" type="bus_bus" depart="59.08" departLane="best" from="-669885438" to="-22812111"/>
    <trip id="bus207" type="bus_bus" depart="59.36" departLane="best" from="-820489246#1" to="470479201"/>
    <trip id="bus208" type="bus_bus" depart="59.65" departLane="best" from="655020601" to="-480698851#1"/>
    <trip id="bus209" type="bus_bus" depart="59.94" departLane="best" from="397765027#0" to="617971441#0"/>
    <trip id="bus210" type="bus_bus" depart="60.22" departLane="best" from="-666823022" to="633248957#0"/>
    <trip id="bus211" type="bus_bus" depart="60.51" departLane="best" from="473440858" to="-94670714#4"/>
    <trip id="bus212" type="bus_bus" depart="60.80" departLane="best" from="628185083#0" to="-110858936#1"/>
    <trip id="bus213" type="bus_bus" depart="61.08" departLane="best" from="639626490" to="643449670#0"/>
    <trip id="bus214" type="bus_bus" depart="61.37" departLane="best" from="-634095906" to="448937445#0"/>
    <trip id="bus215" type="bus_bus" depart="61.66" departLane="best" from="-650862156" to="757217671"/>
    <trip id="bus216" type="bus_bus" depart="61.94" departLane="best" from="476407918" to="-39741811"/>
    <trip id="bus217" type="bus_bus" depart="62.23" departLane="best" from="-933705337#1" to="655041233#0"/>
    <trip id="bus218" type="bus_bus" depart="62.52" departLane="best" from="464772326#0" to="646401903"/>
    <trip id="bus219" type="bus_bus" depart="62.80" departLane="best" from="630444553" to="828015623"/>
    <trip id="bus220" type="bus_bus" depart="63.09" departLane="best" from="538747212" to="75226970#0"/>
    <trip id="bus221" type="bus_bus" depart="63.38" departLane="best" from="680914370#0" to="582392192#0"/>
    <trip id="bus222" type="bus_bus" depart="63.66" departLane="best" from="634514224" to="475326810#0"/>
    <trip id="bus223" type="bus_bus" depart="63.95" departLane="best" from="649605327" to="480271939"/>
    <trip id="bus225" type="bus_bus" depart="64.52" departLane="best" from="466736535#0" to="111285316#0"/>
    <trip id="bus226" type="bus_bus" depart="64.81" departLane="best" from="-885440593" to="623718343#0"/>
    <trip id="bus227" type="bus_bus" depart="65.10" departLane="best" from="641077238" to="476720124#0"/>
    <trip id="bus228" type="bus_bus" depart="65.38" departLane="best" from="587048090#0" to="123662587#1"/>
    <trip id="bus229" type="bus_bus" depart="65.67" departLane="best" from="-533064328" to="160443490#0"/>
    <trip id="bus230" type="bus_bus" depart="65.96" departLane="best" from="1168876397" to="195694179#0"/>
    <trip id="bus232" type="bus_bus" depart="66.53" departLane="best" from="-751767487" to="633182132#0"/>
    <trip id="bus233" type="bus_bus" depart="66.82" departLane="best" from="633800307" to="-473404173"/>
    <trip id="bus234" type="bus_bus" depart="67.11" departLane="best" from="376922147#0" to="479602313"/>
    <trip id="bus235" type="bus_bus" depart="67.39" departLane="best" from="412280010#1" to="-702871168#2"/>
    <trip id="bus236" type="bus_bus" depart="67.68" departLane="best" from="44488271#0" to="718229611"/>
    <trip id="bus237" type="bus_bus" depart="67.97" departLane="best" from="537082850" to="633243926"/>
    <trip id="bus238" type="bus_bus" depart="68.25" departLane="best" from="655593971" to="641132778"/>
    <trip id="bus239" type="bus_bus" depart="68.54" departLane="best" from="32776985" to="-111285317"/>
    <trip id="bus240" type="bus_bus" depart="68.83" departLane="best" from="23828874#0" to="639951366"/>
    <trip id="bus241" type="bus_bus" depart="69.11" departLane="best" from="655148391#0" to="753791968#5-AddedOnRampEdge"/>
    <trip id="bus242" type="bus_bus" depart="69.40" departLane="best" from="44122503#0" to="639579215#0"/>
    <trip id="bus243" type="bus_bus" depart="69.69" departLane="best" from="479745789" to="541201043"/>
    <trip id="bus244" type="bus_bus" depart="69.97" departLane="best" from="-738296038" to="-74666360#1"/>
    <trip id="bus245" type="bus_bus" depart="70.26" departLane="best" from="448937668#0" to="-23830593#3"/>
    <trip id="bus246" type="bus_bus" depart="70.55" departLane="best" from="22650763#0" to="632408857"/>
    <trip id="bus247" type="bus_bus" depart="70.83" departLane="best" from="465312357" to="-643426677"/>
    <trip id="bus248" type="bus_bus" depart="71.12" departLane="best" from="585727673#0" to="-23640319"/>
    <trip id="bus249" type="bus_bus" depart="71.41" departLane="best" from="34905417" to="512918126#0"/>
    <trip id="bus250" type="bus_bus" depart="71.69" departLane="best" from="-230646691#1" to="626857823#0"/>
    <trip id="bus251" type="bus_bus" depart="71.98" departLane="best" from="-644243147#2" to="46522836#0"/>
    <trip id="bus252" type="bus_bus" depart="72.27" departLane="best" from="-701900019#1" to="218215420#0"/>
    <trip id="bus253" type="bus_bus" depart="72.55" departLane="best" from="640194866#0" to="33205818#0"/>
    <trip id="bus254" type="bus_bus" depart="72.84" departLane="best" from="639696721#0" to="651061508#0"/>
    <trip id="bus255" type="bus_bus" depart="73.13" departLane="best" departSpeed="max" from="1006533336#0" to="-598688426#1"/>
    <trip id="bus256" type="bus_bus" depart="73.41" departLane="best" from="-174262796#1" to="479325843"/>
    <trip id="bus257" type="bus_bus" depart="73.70" departLane="best" from="998092146#0" to="23946405#1"/>
    <trip id="bus258" type="bus_bus" depart="73.99" departLane="best" from="627713570" to="644850217"/>
    <trip id="bus259" type="bus_bus" depart="74.27" departLane="best" from="627923178#0" to="639994466#0"/>
    <trip id="bus260" type="bus_bus" depart="74.56" departLane="best" from="751805063" to="-673297588"/>
    <trip id="bus262" type="bus_bus" depart="75.13" departLane="best" from="-641073892" to="631723030#0"/>
    <trip id="bus264" type="bus_bus" depart="75.71" departLane="best" from="633262251" to="641305828"/>
    <trip id="bus265" type="bus_bus" depart="76.00" departLane="best" from="-646879950" to="543352614#1"/>
    <trip id="bus266" type="bus_bus" depart="76.28" departLane="best" from="639423117#1" to="-639628184"/>
    <trip id="bus268" type="bus_bus" depart="76.86" departLane="best" from="-634219451" to="-23513312#1"/>
    <trip id="bus269" type="bus_bus" depart="77.14" departLane="best" from="174281626#0" to="632266200#0"/>
    <trip id="bus270" type="bus_bus" depart="77.43" departLane="best" from="757211606" to="36497256#0"/>
    <trip id="bus271" type="bus_bus" depart="77.72" departLane="best" from="634152721" to="-537082850"/>
    <trip id="bus272" type="bus_bus" depart="78.00" departLane="best" from="632841945" to="613186700#1"/>
    <trip id="bus273" type="bus_bus" depart="78.29" departLane="best" from="-632961708" to="643795119"/>
    <trip id="bus274" type="bus_bus" depart="78.58" departLane="best" from="655058386" to="539642091#0"/>
    <trip id="bus275" type="bus_bus" depart="78.86" departLane="best" from="-639994433#1" to="821823030"/>
    <trip id="bus277" type="bus_bus" depart="79.44" departLane="best" from="446034707#4" to="325024314"/>
    <trip id="bus279" type="bus_bus" depart="80.01" departLane="best" from="655019071#1" to="647158748#0"/>
    <trip id="bus280" type="bus_bus" depart="80.30" departLane="best" from="-633805501" to="763947021"/>
    <trip id="bus281" type="bus_bus" depart="80.58" departLane="best" from="620514877#0" to="649625862"/>
    <trip id="bus282" type="bus_bus" depart="80.87" departLane="best" from="633805540" to="46342760"/>
    <trip id="bus283" type="bus_bus" depart="81.16" departLane="best" from="635748926#0" to="768471956#0"/>