<?xml version="1.0" encoding="UTF-8"?>

<!-- generated on 2024-01-24 13:17:55.418219 by osmWebWizard.py v1_14_1+0000-f654d7b963e
<configuration>
    <allow-fringe.min-length value="1000.0"/>
    <end value="3600"/>
    <fringe-factor value="5.0"/>
    <fringe-start-attributes value="departSpeed=&quot;max&quot;"/>
    <lanes value="True"/>
    <min-distance value="300.0"/>
    <net-file value="C:\Users\Joseph\Masters-Dissertation\2024-01-24-13-07-57\osm.net.xml"/>
    <period value="0.0976295207406523"/>
    <route-file value="C:\Users\Joseph\Masters-Dissertation\2024-01-24-13-07-57\osm.passenger.rou.xml"/>
    <trip-attributes value="departLane=&quot;best&quot;"/>
    <output-trip-file value="C:\Users\Joseph\Masters-Dissertation\2024-01-24-13-07-57\osm.passenger.trips.xml"/>
    <prefix value="veh"/>
    <validate value="True"/>
    <vehicle-class value="passenger"/>
</configuration>
-->

<!-- generated on 2024-01-24 13:13:51 by Eclipse SUMO duarouter Version 1.14.1
<configuration xmlns:xsi="http://www.w3.org/2001/XMLSchema-instance" xsi:noNamespaceSchemaLocation="http://sumo.dlr.de/xsd/duarouterConfiguration.xsd">

    <input>
        <net-file value="C:\Users\Joseph\Masters-Dissertation\2024-01-24-13-07-57\osm.net.xml"/>
        <route-files value="C:\Users\Joseph\Masters-Dissertation\2024-01-24-13-07-57\osm.passenger.trips.xml"/>
    </input>

    <output>
        <output-file value="C:\Users\Joseph\Masters-Dissertation\2024-01-24-13-07-57\osm.passenger.trips.xml.tmp"/>
        <alternatives-output value="NUL"/>
        <write-trips value="true"/>
    </output>

    <time>
        <begin value="0"/>
        <end value="3600"/>
    </time>

    <report>
        <no-warnings value="true"/>
        <ignore-errors value="true"/>
        <no-step-log value="true"/>
    </report>

</configuration>
-->

<routes xmlns:xsi="http://www.w3.org/2001/XMLSchema-instance" xsi:noNamespaceSchemaLocation="http://sumo.dlr.de/xsd/routes_file.xsd">
    <vType id="veh_passenger" vClass="passenger"/>
    <trip id="veh0" type="veh_passenger" depart="0.00" departLane="best" from="632479264" to="-36497249"/>
    <trip id="veh1" type="veh_passenger" depart="0.10" departLane="best" from="383281860#0" to="23810494#0"/>
    <trip id="veh2" type="veh_passenger" depart="0.20" departLane="best" from="641052272#0" to="634088229#0"/>
    <trip id="veh3" type="veh_passenger" depart="0.29" departLane="best" from="726189368" to="-646968110"/>
    <trip id="veh4" type="veh_passenger" depart="0.39" departLane="best" departSpeed="max" from="476755525#0" to="-46430904"/>
    <trip id="veh5" type="veh_passenger" depart="0.49" departLane="best" from="22810638#0" to="537041150#0"/>
    <trip id="veh6" type="veh_passenger" depart="0.59" departLane="best" from="-36500153" to="198159690"/>
    <trip id="veh7" type="veh_passenger" depart="0.68" departLane="best" departSpeed="max" from="632913373" to="582412283#0"/>
    <trip id="veh8" type="veh_passenger" depart="0.78" departLane="best" from="22928582" to="627678177"/>
    <trip id="veh9" type="veh_passenger" depart="0.88" departLane="best" from="652562912#1" to="-129850265"/>
    <trip id="veh10" type="veh_passenger" depart="0.98" departLane="best" from="652352810" to="635671719#0"/>
    <trip id="veh11" type="veh_passenger" depart="1.07" departLane="best" from="467731256#2" to="159630078"/>
    <trip id="veh12" type="veh_passenger" depart="1.17" departLane="best" from="768471958" to="466004250"/>
    <trip id="veh13" type="veh_passenger" depart="1.27" departLane="best" departSpeed="max" from="-647775788" to="-666823020"/>
    <trip id="veh14" type="veh_passenger" depart="1.37" departLane="best" from="666560005#1" to="628474748#0"/>
    <trip id="veh15" type="veh_passenger" depart="1.46" departLane="best" from="652437188#0" to="640066781#0"/>
    <trip id="veh16" type="veh_passenger" depart="1.56" departLane="best" from="542158617#0" to="792795853"/>
    <trip id="veh17" type="veh_passenger" depart="1.66" departLane="best" from="474691976#1" to="585984916#0"/>
    <trip id="veh18" type="veh_passenger" depart="1.76" departLane="best" from="655677828#0" to="630441430#0"/>
    <trip id="veh19" type="veh_passenger" depart="1.85" departLane="best" from="671944881" to="623713567"/>
    <trip id="veh20" type="veh_passenger" depart="1.95" departLane="best" from="636750120" to="-632506924#1"/>
    <trip id="veh21" type="veh_passenger" depart="2.05" departLane="best" from="23832401" to="445716683"/>
    <trip id="veh22" type="veh_passenger" depart="2.15" departLane="best" from="-646206263" to="263926705#13"/>
    <trip id="veh23" type="veh_passenger" depart="2.25" departLane="best" from="-667074646" to="396336422#0"/>
    <trip id="veh24" type="veh_passenger" depart="2.34" departLane="best" from="632266407" to="473173011#0"/>
    <trip id="veh25" type="veh_passenger" depart="2.44" departLane="best" from="473880866" to="22653233#1"/>
    <trip id="veh26" type="veh_passenger" depart="2.54" departLane="best" from="353574239" to="75141899"/>
    <trip id="veh27" type="veh_passenger" depart="2.64" departLane="best" departSpeed="max" from="632853078#0" to="629331530"/>
    <trip id="veh28" type="veh_passenger" depart="2.73" departLane="best" from="170968190" to="640003727"/>
    <trip id="veh29" type="veh_passenger" depart="2.83" departLane="best" departSpeed="max" from="163030150#0" to="474677980"/>
    <trip id="veh30" type="veh_passenger" depart="2.93" departLane="best" from="829637627" to="632499071#0"/>
    <trip id="veh31" type="veh_passenger" depart="3.03" departLane="best" from="586147615#0" to="634564739"/>
    <trip id="veh32" type="veh_passenger" depart="3.12" departLane="best" from="663605912" to="648935786#0"/>
    <trip id="veh33" type="veh_passenger" depart="3.22" departLane="best" from="23924481#0" to="-464978443"/>
    <trip id="veh34" type="veh_passenger" depart="3.32" departLane="best" from="464131353" to="36525451"/>
    <trip id="veh35" type="veh_passenger" depart="3.42" departLane="best" from="22321378" to="753791969#1-AddedOnRampEdge"/>
    <trip id="veh36" type="veh_passenger" depart="3.51" departLane="best" from="705666747#0" to="464230125#0"/>
    <trip id="veh37" type="veh_passenger" depart="3.61" departLane="best" from="633178245" to="475384928#0"/>
    <trip id="veh38" type="veh_passenger" depart="3.71" departLane="best" from="74662288" to="479753462"/>
    <trip id="veh39" type="veh_passenger" depart="3.81" departLane="best" from="349477751" to="32776560#0"/>
    <trip id="veh40" type="veh_passenger" depart="3.91" departLane="best" from="599489451" to="349477780"/>
    <trip id="veh41" type="veh_passenger" depart="4.00" departLane="best" from="626082264" to="738468727#0"/>
    <trip id="veh42" type="veh_passenger" depart="4.10" departLane="best" from="476145598#0" to="230785216#0"/>
    <trip id="veh43" type="veh_passenger" depart="4.20" departLane="best" from="933745974" to="537719431#2"/>
    <trip id="veh44" type="veh_passenger" depart="4.30" departLane="best" from="-647084147" to="-632716924"/>
    <trip id="veh45" type="veh_passenger" depart="4.39" departLane="best" from="-697833258#1" to="631844130#0"/>
    <trip id="veh46" type="veh_passenger" depart="4.49" departLane="best" from="650933328#0" to="476753245#0"/>
    <trip id="veh47" type="veh_passenger" depart="4.59" departLane="best" from="-640275729" to="474908502#0"/>
    <trip id="veh48" type="veh_passenger" depart="4.69" departLane="best" from="915395759" to="539602769"/>
    <trip id="veh49" type="veh_passenger" depart="4.78" departLane="best" from="792748819#0" to="671409889#0"/>
    <trip id="veh50" type="veh_passenger" depart="4.88" departLane="best" from="-195693380" to="639550735#0"/>
    <trip id="veh51" type="veh_passenger" depart="4.98" departLane="best" from="634175369" to="544906476"/>
    <trip id="veh52" type="veh_passenger" depart="5.08" departLane="best" from="35096688" to="632528509"/>
    <trip id="veh53" type="veh_passenger" depart="5.17" departLane="best" from="-725152003" to="477958806"/>
    <trip id="veh54" type="veh_passenger" depart="5.27" departLane="best" from="479378365" to="764041528"/>
    <trip id="veh56" type="veh_passenger" depart="5.47" departLane="best" from="536039215" to="174262834#3"/>
    <trip id="veh57" type="veh_passenger" depart="5.56" departLane="best" from="746061759#1-AddedOffRampEdge" to="697747696"/>
    <trip id="veh58" type="veh_passenger" depart="5.66" departLane="best" from="447713249#0" to="632479264"/>
    <trip id="veh59" type="veh_passenger" depart="5.76" departLane="best" from="628751492" to="142708995"/>
    <trip id="veh60" type="veh_passenger" depart="5.86" departLane="best" from="646621221" to="546684912"/>
    <trip id="veh61" type="veh_passenger" depart="5.96" departLane="best" from="649169265#1" to="539663316#0"/>
    <trip id="veh62" type="veh_passenger" depart="6.05" departLane="best" departSpeed="max" from="-1024819353#1" to="464800054#0"/>
    <trip id="veh63" type="veh_passenger" depart="6.15" departLane="best" from="-28208749" to="749672644"/>
    <trip id="veh64" type="veh_passenger" depart="6.25" departLane="best" from="711645501" to="656390496"/>
    <trip id="veh65" type="veh_passenger" depart="6.35" departLane="best" from="448937681#0" to="-639911269"/>
    <trip id="veh66" type="veh_passenger" depart="6.44" departLane="best" from="711225584" to="754524055"/>
    <trip id="veh67" type="veh_passenger" depart="6.54" departLane="best" departSpeed="max" from="-646812461#1" to="512918068"/>
    <trip id="veh68" type="veh_passenger" depart="6.64" departLane="best" from="-643868720" to="646393274"/>
    <trip id="veh69" type="veh_passenger" depart="6.74" departLane="best" from="646794425" to="1014611303#0"/>
    <trip id="veh70" type="veh_passenger" depart="6.83" departLane="best" from="481678435" to="585646227#0"/>
    <trip id="veh71" type="veh_passenger" depart="6.93" departLane="best" from="349477767" to="700123180#0"/>
    <trip id="veh72" type="veh_passenger" depart="7.03" departLane="best" from="476973646#0" to="22701174#0"/>
    <trip id="veh73" type="veh_passenger" depart="7.13" departLane="best" from="546170921" to="640066788#0"/>
    <trip id="veh74" type="veh_passenger" depart="7.22" departLane="best" from="184914386" to="463995440#0"/>
    <trip id="veh75" type="veh_passenger" depart="7.32" departLane="best" from="885388066" to="632953495"/>
    <trip id="veh76" type="veh_passenger" depart="7.42" departLane="best" from="478287544#0" to="538416083#0"/>
    <trip id="veh77" type="veh_passenger" depart="7.52" departLane="best" from="-751768366#1" to="23835074#0"/>
    <trip id="veh78" type="veh_passenger" depart="7.62" departLane="best" from="466692545#0" to="627663853"/>
    <trip id="veh79" type="veh_passenger" depart="7.71" departLane="best" from="23924762#2" to="23194137"/>
    <trip id="veh80" type="veh_passenger" depart="7.81" departLane="best" from="-644410211" to="632087168"/>
    <trip id="veh81" type="veh_passenger" depart="7.91" departLane="best" from="23924464" to="74518780#0"/>
    <trip id="veh82" type="veh_passenger" depart="8.01" departLane="best" from="669876182#0" to="-644885219#2"/>
    <trip id="veh83" type="veh_passenger" depart="8.10" departLane="best" from="28211198#0" to="633804505#0"/>
    <trip id="veh84" type="veh_passenger" depart="8.20" departLane="best" from="22697939#0" to="1071019666"/>
    <trip id="veh85" type="veh_passenger" depart="8.30" departLane="best" from="75110223#0" to="620557608#0"/>
    <trip id="veh86" type="veh_passenger" depart="8.40" departLane="best" from="480885321#0" to="649605327"/>
    <trip id="veh87" type="veh_passenger" depart="8.49" departLane="best" from="652539252" to="175959440#0"/>
    <trip id="veh88" type="veh_passenger" depart="8.59" departLane="best" from="-665477728" to="477907935"/>
    <trip id="veh89" type="veh_passenger" depart="8.69" departLane="best" from="476983251" to="480283629#0"/>
    <trip id="veh90" type="veh_passenger" depart="8.79" departLane="best" from="639915965" to="633855512"/>
    <trip id="veh91" type="veh_passenger" depart="8.88" departLane="best" from="823708588" to="-669621114"/>
    <trip id="veh92" type="veh_passenger" depart="8.98" departLane="best" from="476158178#0" to="46928528#0"/>
    <trip id="veh93" type="veh_passenger" depart="9.08" departLane="best" from="671942753#0" to="32838194"/>
    <trip id="veh94" type="veh_passenger" depart="9.18" departLane="best" from="174886216#0" to="479304700#0"/>
    <trip id="veh95" type="veh_passenger" depart="9.27" departLane="best" departSpeed="max" from="476755525#0" to="397426437#0"/>
    <trip id="veh96" type="veh_passenger" depart="9.37" departLane="best" from="32776858" to="74769752#0"/>
    <trip id="veh97" type="veh_passenger" depart="9.47" departLane="best" from="479079575" to="672127180#0"/>
    <trip id="veh98" type="veh_passenger" depart="9.57" departLane="best" from="585630298#0" to="-633852599#2"/>
    <trip id="veh99" type="veh_passenger" depart="9.67" departLane="best" from="99446920#0" to="660086364"/>
    <trip id="veh100" type="veh_passenger" depart="9.76" departLane="best" from="788785083" to="74892273"/>
    <trip id="veh102" type="veh_passenger" depart="9.96" departLane="best" from="503164307#0" to="22791677#0"/>
    <trip id="veh103" type="veh_passenger" depart="10.06" departLane="best" from="476147271" to="-639968058"/>
    <trip id="veh104" type="veh_passenger" depart="10.15" departLane="best" from="474710407#0" to="824411067"/>
    <trip id="veh105" type="veh_passenger" depart="10.25" departLane="best" from="349477785" to="649592047"/>
    <trip id="veh106" type="veh_passenger" depart="10.35" departLane="best" from="479600310#0" to="476755134"/>
    <trip id="veh107" type="veh_passenger" depart="10.45" departLane="best" from="769184456#0" to="904147006#0"/>
    <trip id="veh108" type="veh_passenger" depart="10.54" departLane="best" from="585992265#0" to="639299755"/>
    <trip id="veh109" type="veh_passenger" depart="10.64" departLane="best" from="129850265" to="448937435#0"/>
    <trip id="veh110" type="veh_passenger" depart="10.74" departLane="best" from="787053450" to="624293825"/>
    <trip id="veh111" type="veh_passenger" depart="10.84" departLane="best" departSpeed="max" from="580386891" to="644700799"/>
    <trip id="veh112" type="veh_passenger" depart="10.93" departLane="best" from="-637455171#0" to="626844950"/>
    <trip id="veh113" type="veh_passenger" depart="11.03" departLane="best" from="536661791#0" to="666954913"/>
    <trip id="veh114" type="veh_passenger" depart="11.13" departLane="best" from="140743355" to="775888832#0"/>
    <trip id="veh115" type="veh_passenger" depart="11.23" departLane="best" from="-646216741" to="175015668-AddedOnRampEdge"/>
    <trip id="veh116" type="veh_passenger" depart="11.33" departLane="best" from="627923422" to="634037974#0"/>
    <trip id="veh117" type="veh_passenger" depart="11.42" departLane="best" from="263926705#0-AddedOffRampEdge" to="-759487928#1"/>
    <trip id="veh118" type="veh_passenger" depart="11.52" departLane="best" from="726039435" to="32776104"/>
    <trip id="veh119" type="veh_passenger" depart="11.62" departLane="best" from="627921867" to="630458496"/>
    <trip id="veh120" type="veh_passenger" depart="11.72" departLane="best" from="476719990" to="626575146"/>
    <trip id="veh121" type="veh_passenger" depart="11.81" departLane="best" from="538761281" to="75097137#0"/>
    <trip id="veh123" type="veh_passenger" depart="12.01" departLane="best" from="28382555#0" to="475918127"/>
    <trip id="veh124" type="veh_passenger" depart="12.11" departLane="best" from="633812368" to="448937504#0"/>
    <trip id="veh125" type="veh_passenger" depart="12.20" departLane="best" from="464174981#0" to="645120317"/>
    <trip id="veh126" type="veh_passenger" depart="12.30" departLane="best" from="-644729617#1" to="479746930"/>
    <trip id="veh127" type="veh_passenger" depart="12.40" departLane="best" from="955570797#0" to="913418213#1"/>
    <trip id="veh128" type="veh_passenger" depart="12.50" departLane="best" from="-644884806" to="22719342"/>
    <trip id="veh129" type="veh_passenger" depart="12.59" departLane="best" from="349477785" to="75055714#0"/>
    <trip id="veh130" type="veh_passenger" depart="12.69" departLane="best" from="715617340" to="715213687"/>
    <trip id="veh131" type="veh_passenger" depart="12.79" departLane="best" from="473656680" to="163030145#0"/>
    <trip id="veh132" type="veh_passenger" depart="12.89" departLane="best" from="657689878#0" to="636736606"/>
    <trip id="veh133" type="veh_passenger" depart="12.98" departLane="best" from="630101415#0" to="826116981"/>
    <trip id="veh134" type="veh_passenger" depart="13.08" departLane="best" from="633150945#1" to="-158214628"/>
    <trip id="veh135" type="veh_passenger" depart="13.18" departLane="best" from="655134046#0" to="448937484#0"/>
    <trip id="veh136" type="veh_passenger" depart="13.28" departLane="best" departSpeed="max" from="633576244#0" to="751816392#0"/>
    <trip id="veh137" type="veh_passenger" depart="13.38" departLane="best" from="1030356598" to="-750689294#2"/>
    <trip id="veh138" type="veh_passenger" depart="13.47" departLane="best" from="-676552263" to="585986489#0"/>
    <trip id="veh139" type="veh_passenger" depart="13.57" departLane="best" from="37553304" to="628485342"/>
    <trip id="veh140" type="veh_passenger" depart="13.67" departLane="best" from="639245194" to="21805086"/>
    <trip id="veh141" type="veh_passenger" depart="13.77" departLane="best" from="632258752#0" to="35091541"/>
    <trip id="veh142" type="veh_passenger" depart="13.86" departLane="best" from="512918118#0" to="74518111#0"/>
    <trip id="veh143" type="veh_passenger" depart="13.96" departLane="best" from="666011794#0" to="-655491320"/>
    <trip id="veh144" type="veh_passenger" depart="14.06" departLane="best" from="476983251" to="391007732#0"/>
    <trip id="veh145" type="veh_passenger" depart="14.16" departLane="best" from="-1199325338" to="646971948#0"/>
    <trip id="veh147" type="veh_passenger" depart="14.35" departLane="best" departSpeed="max" from="641311454" to="585984897#0"/>
    <trip id="veh148" type="veh_passenger" depart="14.45" departLane="best" from="477623491#2" to="-174262810#2"/>
    <trip id="veh149" type="veh_passenger" depart="14.55" departLane="best" from="-645138276#1" to="717450371"/>
    <trip id="veh150" type="veh_passenger" depart="14.64" departLane="best" from="74481734" to="582412291#0"/>
    <trip id="veh151" type="veh_passenger" depart="14.74" departLane="best" from="658171037" to="626058477"/>
    <trip id="veh152" type="veh_passenger" depart="14.84" departLane="best" from="120106012#2" to="1002831699"/>
    <trip id="veh153" type="veh_passenger" depart="14.94" departLane="best" from="44957253#0" to="740136192"/>
    <trip id="veh154" type="veh_passenger" depart="15.03" departLane="best" from="651924300#0" to="670783744#0"/>
    <trip id="veh155" type="veh_passenger" depart="15.13" departLane="best" from="739675672" to="22694338"/>
    <trip id="veh156" type="veh_passenger" depart="15.23" departLane="best" from="32776720" to="-674562995#1"/>
    <trip id="veh157" type="veh_passenger" depart="15.33" departLane="best" from="649371736" to="718240843"/>
    <trip id="veh158" type="veh_passenger" depart="15.43" departLane="best" from="476381191#0" to="630806997"/>
    <trip id="veh159" type="veh_passenger" depart="15.52" departLane="best" from="129848782" to="74974617"/>
    <trip id="veh160" type="veh_passenger" depart="15.62" departLane="best" from="673792771" to="797343552#1"/>
    <trip id="veh161" type="veh_passenger" depart="15.72" departLane="best" from="654766089" to="717055145"/>
    <trip id="veh162" type="veh_passenger" depart="15.82" departLane="best" from="-34377107" to="641089656"/>
    <trip id="veh163" type="veh_passenger" depart="15.91" departLane="best" from="465226139#0" to="749844989#0"/>
    <trip id="veh164" type="veh_passenger" depart="16.01" departLane="best" from="652168744#0" to="673792771"/>
    <trip id="veh165" type="veh_passenger" depart="16.11" departLane="best" from="654766089" to="36499245"/>
    <trip id="veh166" type="veh_passenger" depart="16.21" departLane="best" from="649633915" to="-726129049"/>
    <trip id="veh167" type="veh_passenger" depart="16.30" departLane="best" from="697996284#0" to="669646104#0"/>
    <trip id="veh168" type="veh_passenger" depart="16.40" departLane="best" from="23027382#0" to="655136432"/>
    <trip id="veh169" type="veh_passenger" depart="16.50" departLane="best" from="479779719" to="448937714#0"/>
    <trip id="veh170" type="veh_passenger" depart="16.60" departLane="best" from="651861846#0" to="23960777#0"/>
    <trip id="veh171" type="veh_passenger" depart="16.69" departLane="best" from="-33298065#1" to="175992329"/>
    <trip id="veh172" type="veh_passenger" depart="16.79" departLane="best" from="464827075#0" to="673818233"/>
    <trip id="veh173" type="veh_passenger" depart="16.89" departLane="best" from="786122938" to="397901184#0"/>
    <trip id="veh174" type="veh_passenger" depart="16.99" departLane="best" from="632528509" to="476112159"/>
    <trip id="veh175" type="veh_passenger" depart="17.09" departLane="best" from="816859250#0" to="543365766#0-AddedOffRampEdge"/>
    <trip id="veh176" type="veh_passenger" depart="17.18" departLane="best" from="751816401#0" to="-750524896#1"/>
    <trip id="veh177" type="veh_passenger" depart="17.28" departLane="best" from="791210567" to="174262824#0"/>
    <trip id="veh178" type="veh_passenger" depart="17.38" departLane="best" from="780428114#0" to="358569938"/>
    <trip id="veh180" type="veh_passenger" depart="17.57" departLane="best" departSpeed="max" from="639903214" to="464204347#0"/>
    <trip id="veh181" type="veh_passenger" depart="17.67" departLane="best" from="628501871" to="537967364#1"/>
    <trip id="veh182" type="veh_passenger" depart="17.77" departLane="best" from="475157987" to="623698865"/>
    <trip id="veh183" type="veh_passenger" depart="17.87" departLane="best" from="33264385" to="637846115#0"/>
    <trip id="veh184" type="veh_passenger" depart="17.96" departLane="best" from="-110853858#3" to="74887378#0"/>
    <trip id="veh185" type="veh_passenger" depart="18.06" departLane="best" from="544909677#0" to="639372122#0"/>
    <trip id="veh186" type="veh_passenger" depart="18.16" departLane="best" from="643221827" to="633809832"/>
    <trip id="veh187" type="veh_passenger" depart="18.26" departLane="best" from="473173017" to="-644721638#2"/>
    <trip id="veh188" type="veh_passenger" depart="18.35" departLane="best" from="633589042#0" to="465226138#0"/>
    <trip id="veh189" type="veh_passenger" depart="18.45" departLane="best" from="463974630#0" to="666578413"/>
    <trip id="veh190" type="veh_passenger" depart="18.55" departLane="best" from="639335348" to="448937542#0"/>
    <trip id="veh191" type="veh_passenger" depart="18.65" departLane="best" from="45065755#0" to="476389382#0"/>
    <trip id="veh192" type="veh_passenger" depart="18.74" departLane="best" from="476149338#0" to="447713025#0"/>
    <trip id="veh193" type="veh_passenger" depart="18.84" departLane="best" from="-795571588#1" to="476716878#0"/>
    <trip id="veh194" type="veh_passenger" depart="18.94" departLane="best" departSpeed="max" from="752878921" to="634102785#0"/>
    <trip id="veh195" type="veh_passenger" depart="19.04" departLane="best" from="744613817#0" to="630416613#0"/>
    <trip id="veh196" type="veh_passenger" depart="19.14" departLane="best" from="448937466#0" to="585630293"/>
    <trip id="veh198" type="veh_passenger" depart="19.33" departLane="best" departSpeed="max" from="477796387" to="624302152#0"/>
    <trip id="veh199" type="veh_passenger" depart="19.43" departLane="best" from="633166594" to="480269041"/>
    <trip id="veh200" type="veh_passenger" depart="19.53" departLane="best" from="478327606" to="22791677#0"/>
    <trip id="veh201" type="veh_passenger" depart="19.62" departLane="best" from="481098362" to="742166200"/>
    <trip id="veh202" type="veh_passenger" depart="19.72" departLane="best" from="651923141" to="173767874#1"/>
    <trip id="veh203" type="veh_passenger" depart="19.82" departLane="best" from="-646794427" to="538213807"/>
    <trip id="veh204" type="veh_passenger" depart="19.92" departLane="best" from="632154230" to="465590099#0"/>
    <trip id="veh205" type="veh_passenger" depart="20.01" departLane="best" from="655141550" to="644974475#0"/>
    <trip id="veh206" type="veh_passenger" depart="20.11" departLane="best" from="633825630" to="23834380"/>
    <trip id="veh208" type="veh_passenger" depart="20.31" departLane="best" from="313510736#0" to="481678435"/>
    <trip id="veh209" type="veh_passenger" depart="20.40" departLane="best" from="666593468" to="-645143017"/>
    <trip id="veh210" type="veh_passenger" depart="20.50" departLane="best" from="476689637#0" to="632028992"/>
    <trip id="veh211" type="veh_passenger" depart="20.60" departLane="best" from="175959374#0" to="635654056#0"/>
    <trip id="veh212" type="veh_passenger" depart="20.70" departLane="best" from="529579780" to="32560988"/>
    <trip id="veh214" type="veh_passenger" depart="20.89" departLane="best" from="644895606#0" to="646930637#0"/>
    <trip id="veh215" type="veh_passenger" depart="20.99" departLane="best" from="-674873264" to="476989772#0"/>
    <trip id="veh216" type="veh_passenger" depart="21.09" departLane="best" from="173767872#0" to="769232927#0"/>
    <trip id="veh217" type="veh_passenger" depart="21.19" departLane="best" from="538298410#0" to="-633790991#1"/>
    <trip id="veh218" type="veh_passenger" depart="21.28" departLane="best" from="32776552" to="666579800#0"/>
    <trip id="veh219" type="veh_passenger" depart="21.38" departLane="best" from="479743196#0" to="652169167#0"/>
    <trip id="veh220" type="veh_passenger" depart="21.48" departLane="best" from="633790982" to="826503714"/>
    <trip id="veh221" type="veh_passenger" depart="21.58" departLane="best" from="627932385" to="758639272"/>
    <trip id="veh222" type="veh_passenger" depart="21.67" departLane="best" departSpeed="max" from="726129071" to="630165469"/>
    <trip id="veh223" type="veh_passenger" depart="21.77" departLane="best" from="639302194#0" to="536925706"/>
    <trip id="veh224" type="veh_passenger" depart="21.87" departLane="best" from="655683332#0" to="585630290#0"/>
    <trip id="veh225" type="veh_passenger" depart="21.97" departLane="best" from="737601199" to="643801253"/>
    <trip id="veh226" type="veh_passenger" depart="22.06" departLane="best" from="481656720#0" to="34587388"/>
    <trip id="veh227" type="veh_passenger" depart="22.16" departLane="best" from="32562012" to="632461800"/>
    <trip id="veh228" type="veh_passenger" depart="22.26" departLane="best" from="646794425" to="538747223#0"/>
    <trip id="veh229" type="veh_passenger" depart="22.36" departLane="best" from="631763769" to="383372421#2-AddedOnRampEdge"/>
    <trip id="veh230" type="veh_passenger" depart="22.45" departLane="best" from="-645342009#1" to="445282964#0"/>
    <trip id="veh231" type="veh_passenger" depart="22.55" departLane="best" from="37523734" to="464307235#0"/>
    <trip id="veh232" type="veh_passenger" depart="22.65" departLane="best" from="546428314#0" to="1126654266"/>
    <trip id="veh233" type="veh_passenger" depart="22.75" departLane="best" from="23960876#0" to="635501765#0"/>
    <trip id="veh234" type="veh_passenger" depart="22.85" departLane="best" from="637033597" to="-642061178#1"/>
    <trip id="veh235" type="veh_passenger" depart="22.94" departLane="best" from="476389869#0" to="582412252#0"/>
    <trip id="veh236" type="veh_passenger" depart="23.04" departLane="best" from="476695960#0" to="22325114"/>
    <trip id="veh237" type="veh_passenger" depart="23.14" departLane="best" from="476752807" to="74501233#0"/>
    <trip id="veh238" type="veh_passenger" depart="23.24" departLane="best" from="624966605" to="635639075#0"/>
    <trip id="veh239" type="veh_passenger" depart="23.33" departLane="best" from="667367591" to="646804130#0"/>
    <trip id="veh240" type="veh_passenger" depart="23.43" departLane="best" from="474903282#0" to="-125767622"/>
    <trip id="veh241" type="veh_passenger" depart="23.53" departLane="best" from="471965399" to="645300794#0"/>
    <trip id="veh242" type="veh_passenger" depart="23.63" departLane="best" from="666971796#0" to="764037865"/>
    <trip id="veh243" type="veh_passenger" depart="23.72" departLane="best" from="476716880" to="644682893"/>
    <trip id="veh244" type="veh_passenger" depart="23.82" departLane="best" from="582412274#0" to="628466108"/>
    <trip id="veh245" type="veh_passenger" depart="23.92" departLane="best" from="22928721#0" to="230785216#1"/>
    <trip id="veh246" type="veh_passenger" depart="24.02" departLane="best" from="478158657" to="-464178647"/>
    <trip id="veh247" type="veh_passenger" depart="24.11" departLane="best" from="465499140#0" to="634148924"/>
    <trip id="veh248" type="veh_passenger" depart="24.21" departLane="best" from="476165178" to="172067796#1"/>
    <trip id="veh249" type="veh_passenger" depart="24.31" departLane="best" from="480288943" to="1006533336#4"/>
    <trip id="veh250" type="veh_passenger" depart="24.41" departLane="best" from="630836243#0" to="-41566024#1"/>
    <trip id="veh251" type="veh_passenger" depart="24.51" departLane="best" from="475378467" to="620213242"/>
    <trip id="veh252" type="veh_passenger" depart="24.60" departLane="best" from="-36525462#1" to="632695885#0"/>
    <trip id="veh253" type="veh_passenger" depart="24.70" departLane="best" from="1058489487#0-AddedOffRampEdge" to="480237013#0"/>
    <trip id="veh254" type="veh_passenger" depart="24.80" departLane="best" from="-632884015" to="474676253#0"/>
    <trip id="veh255" type="veh_passenger" depart="24.90" departLane="best" from="22371290" to="464830267#0"/>