<?xml version="1.0" encoding="UTF-8"?>

<!-- generated on 2024-01-24 13:08:45 by Eclipse SUMO netconvert Version 1.14.1
<configuration xmlns:xsi="http://www.w3.org/2001/XMLSchema-instance" xsi:noNamespaceSchemaLocation="http://sumo.dlr.de/xsd/netconvertConfiguration.xsd">

    <input>
        <type-files value="C:\Program%20Files%20(x86)\Eclipse\Sumo\data\typemap\osmNetconvert.typ.xml"/>
        <osm-files value="osm_bbox.osm.xml.gz"/>
    </input>

    <output>
        <output-file value="osm.net.xml"/>
        <output.street-names value="true"/>
        <output.original-names value="true"/>
        <ptstop-output value="osm_stops.add.xml"/>
        <ptline-output value="osm_ptlines.xml"/>
    </output>

    <projection>
        <proj.utm value="true"/>
    </projection>

    <processing>
        <geometry.remove value="true"/>
        <roundabouts.guess value="true"/>
        <lefthand value="true"/>
    </processing>

    <tls_building>
        <tls.discard-simple value="true"/>
        <tls.join value="true"/>
        <tls.guess-signals value="true"/>
        <tls.default-type value="actuated"/>
    </tls_building>

    <ramp_guessing>
        <ramps.guess value="true"/>
    </ramp_guessing>

    <edge_removal>
        <keep-edges.by-vclass value="passenger,bus,tram,rail_urban,rail"/>
    </edge_removal>

    <junctions>
        <junctions.join value="true"/>
        <junctions.corner-detail value="5"/>
    </junctions>

    <railway>
        <railway.topology.repair value="true"/>
    </railway>

    <report>
        <verbose value="true"/>
    </report>

</configuration>
-->

<additional xmlns:xsi="http://www.w3.org/2001/XMLSchema-instance" xsi:noNamespaceSchemaLocation="http://sumo.dlr.de/xsd/additional_file.xsd">
    <busStop id="-1573773447" name="Saint Michael&apos;s Terminal" lane="-463966786_0" startPos="0.00" endPos="7.52" friendlyPos="true" lines="125 131 131A 21 129"/>
    <busStop id="-1846569489" name="Lavender Station Exit A/ICA" lane="-639546955_0" startPos="19.80" endPos="34.80" friendlyPos="true">
        <access lane="633574722#0_0" pos="0.00" length="82.81" friendlyPos="1"/>
        <access lane="660086364_0" pos="76.93" length="69.47" friendlyPos="1"/>
        <access lane="660087576_0" pos="64.47" length="12.72" friendlyPos="1"/>
        <access lane="753847945#0_0" pos="17.31" length="86.12" friendlyPos="1"/>
        <access lane="786076258#0_0" pos="0.00" length="82.42" friendlyPos="1"/>
    </busStop>
    <busStop id="-410459480" name="Aljunied Park" lane="-474865667#1_0" startPos="0.92" endPos="15.92" friendlyPos="true">
        <access lane="-665786516_0" pos="223.96" length="132.67" friendlyPos="1"/>
        <access lane="647085885_0" pos="58.52" length="136.40" friendlyPos="1"/>
        <access lane="661618095_0" pos="187.77" length="9.62" friendlyPos="1"/>
        <access lane="661638145_0" pos="126.00" length="35.27" friendlyPos="1"/>
        <access lane="666832099_0" pos="28.70" length="127.87" friendlyPos="1"/>
    </busStop>
    <busStop id="-410459484" name="Aljunied Station" lane="-660350361_0" startPos="43.59" endPos="58.59" friendlyPos="true">
        <access lane="-666819033_0" pos="67.50" length="120.63" friendlyPos="1"/>
        <access lane="23514480_0" pos="0.00" length="125.06" friendlyPos="1"/>
        <access lane="585646217_0" pos="217.75" length="11.92" friendlyPos="1"/>
        <access lane="646623331#0_0" pos="113.20" length="133.52" friendlyPos="1"/>
        <access lane="74750869_0" pos="72.89" length="47.92" friendlyPos="1"/>
    </busStop>
    <busStop id="-410459491" name="After Canossa Convent Primary" lane="-660361927_0" startPos="5.99" endPos="20.99" friendlyPos="true">
        <access lane="-646875583_0" pos="231.77" length="84.63" friendlyPos="1"/>
        <access lane="33792858_0" pos="0.00" length="79.91" friendlyPos="1"/>
        <access lane="474865946_0" pos="47.31" length="39.42" friendlyPos="1"/>
        <access lane="639358195_0" pos="0.00" length="92.29" friendlyPos="1"/>
        <access lane="74746279_0" pos="101.29" length="0.16" friendlyPos="1"/>
    </busStop>
    <busStop id="-410459710@2349833" name="Blk 564" lane="-175959389_0" startPos="21.24" endPos="36.24" friendlyPos="true" lines="268">
        <access lane="175959389_0" pos="123.15" length="38.44" friendlyPos="1"/>
        <access lane="480280668#0_0" pos="148.17" length="5.51" friendlyPos="1"/>
        <access lane="480472258_0" pos="0.00" length="156.43" friendlyPos="1"/>
        <access lane="632026808_0" pos="0.00" length="52.49" friendlyPos="1"/>
        <access lane="632153638_0" pos="0.00" length="162.71" friendlyPos="1"/>
    </busStop>
    <busStop id="-410459791" name="Blk 570" lane="-715625191#1_0" startPos="26.80" endPos="41.80" friendlyPos="true" lines="268">
        <access lane="480280666_0" pos="0.00" length="66.67" friendlyPos="1"/>
        <access lane="632731642#0_0" pos="0.00" length="113.81" friendlyPos="1"/>
        <access lane="632731643#0_0" pos="79.80" length="57.33" friendlyPos="1"/>
        <access lane="715625191#0_0" pos="11.64" length="14.14" friendlyPos="1"/>
        <access lane="715625192_0" pos="192.11" length="35.18" friendlyPos="1"/>
    </busStop>
    <busStop id="-410459794" name="Blk 101" lane="-475332206_0" startPos="435.12" endPos="450.12" friendlyPos="true">
        <access lane="-632463439#1_0" pos="133.50" length="144.92" friendlyPos="1"/>
        <access lane="537401722#0_0" pos="0.20" length="196.31" friendlyPos="1"/>
        <access lane="537401723#0_0" pos="0.00" length="210.55" friendlyPos="1"/>
        <access lane="537909421_0" pos="27.76" length="200.70" friendlyPos="1"/>
        <access lane="632462154_0" pos="0.00" length="140.48" friendlyPos="1"/>
    </busStop>
    <busStop id="-410462102" name="Serangoon Stadium" lane="-652148057_0" startPos="10.04" endPos="25.04" friendlyPos="true">
        <access lane="-241254711#1_0" pos="0.00" length="88.80" friendlyPos="1"/>
        <access lane="174886148_0" pos="315.53" length="53.59" friendlyPos="1"/>
        <access lane="325024314_0" pos="49.46" length="5.92" friendlyPos="1"/>
        <access lane="383365016_0" pos="0.00" length="91.62" friendlyPos="1"/>
        <access lane="475166109_0" pos="0.00" length="67.11" friendlyPos="1"/>
    </busStop>
    <busStop id="-410464855" name="Blk 708" lane="-649800530_0" startPos="9.55" endPos="24.55" friendlyPos="true">
        <access lane="-308313504#1_0" pos="72.97" length="184.57" friendlyPos="1"/>
        <access lane="-32267448_0" pos="86.78" length="164.72" friendlyPos="1"/>
        <access lane="-32920646#1_0" pos="80.34" length="229.05" friendlyPos="1"/>
        <access lane="308313504#0_0" pos="13.48" length="189.37" friendlyPos="1"/>
        <access lane="644676386_0" pos="89.48" length="159.92" friendlyPos="1"/>
    </busStop>
    <busStop id="-410467744" name="Between House No. 767/767A" lane="-538747216_0" startPos="21.46" endPos="36.46" friendlyPos="true"/>
    <busStop id="-410467869" name="The Tanamera Condominium" lane="-768049124_0" startPos="58.84" endPos="73.84" friendlyPos="true">
        <access lane="473409069_0" pos="0.00" length="167.65" friendlyPos="1"/>
        <access lane="633790982_0" pos="200.04" length="51.53" friendlyPos="1"/>
        <access lane="661340800_0" pos="0.00" length="154.01" friendlyPos="1"/>
        <access lane="74741528_0" pos="150.45" length="1.04" friendlyPos="1"/>
        <access lane="768471956#0_0" pos="0.00" length="86.45" friendlyPos="1"/>
    </busStop>
    <busStop id="-410475011" name="Sengkang Interchange" lane="-175540523#1_0" startPos="0.00" endPos="8.95" friendlyPos="true" lines="163B"/>
    <busStop id="-410475478" name="Sims Place Terminal" lane="-665782174_0" startPos="2.09" endPos="17.09" friendlyPos="true" lines="64"/>
    <busStop id="-410479708@1154456" name="Toa Payoh Interchange" lane="-481679396_0" startPos="9.73" endPos="24.73" friendlyPos="true" lines="155">
        <access lane="464307259_0" pos="42.87" length="71.99" friendlyPos="1"/>
        <access lane="528535334#0_0" pos="60.85" length="55.84" friendlyPos="1"/>
        <access lane="613186700#2_0" pos="19.35" length="73.03" friendlyPos="1"/>
        <access lane="613186700#3_0" pos="9.76" length="66.42" friendlyPos="1"/>
        <access lane="617971412#1_0" pos="19.11" length="77.81" friendlyPos="1"/>
    </busStop>
    <busStop id="-410479708@12980591" name="Toa Payoh Interchange" lane="-533476180#1_0" startPos="0.00" endPos="7.50" friendlyPos="true" lines="142A 235"/>
    <busStop id="-410479727" name="Opposite Toa Payoh Swimming Complex" lane="-481679398_0" startPos="50.58" endPos="65.58" friendlyPos="true" lines="155 238">
        <access lane="259686640_0" pos="167.70" length="32.15" friendlyPos="1"/>
        <access lane="464307274_0" pos="273.75" length="8.26" friendlyPos="1"/>
        <access lane="481618763#0_1" pos="0.00" length="164.90" friendlyPos="1"/>
        <access lane="481618764#0_1" pos="5.33" length="26.07" friendlyPos="1"/>
        <access lane="640194018_1" pos="0.00" length="206.67" friendlyPos="1"/>
    </busStop>
    <busStop id="-410482833" name="Opposite The Helping Hand" lane="-538620030_0" startPos="0.00" endPos="7.70" friendlyPos="true">
        <access lane="465833620_0" pos="91.94" length="71.41" friendlyPos="1"/>
        <access lane="478162370_0" pos="0.00" length="51.57" friendlyPos="1"/>
        <access lane="478162371_0" pos="0.00" length="6.06" friendlyPos="1"/>
        <access lane="478162373#0_0" pos="61.55" length="46.54" friendlyPos="1"/>
        <access lane="538620030_0" pos="37.85" length="7.64" friendlyPos="1"/>
    </busStop>
    <busStop id="-410482968" name="The Helping Hand" lane="-478162373#2_0" startPos="11.34" endPos="26.34" friendlyPos="true">
        <access lane="478162369#0_0" pos="135.81" length="22.01" friendlyPos="1"/>
        <access lane="478162370_0" pos="0.00" length="93.89" friendlyPos="1"/>
        <access lane="478162371_0" pos="52.40" length="43.72" friendlyPos="1"/>
        <access lane="478162373#0_0" pos="7.53" length="3.76" friendlyPos="1"/>
        <access lane="537041150#0_0" pos="0.00" length="82.40" friendlyPos="1"/>
    </busStop>
    <busStop id="-410483051" name="After Wolskel Road" lane="-537041152#2_0" startPos="8.40" endPos="23.40" friendlyPos="true">
        <access lane="174281659#0_0" pos="159.30" length="80.55" friendlyPos="1"/>
        <access lane="475116741#0_0" pos="23.34" length="70.38" friendlyPos="1"/>
        <access lane="537041152#0_0" pos="36.91" length="4.12" friendlyPos="1"/>
        <access lane="647096295_0" pos="25.93" length="66.65" friendlyPos="1"/>
        <access lane="740954602#0_0" pos="0.00" length="78.24" friendlyPos="1"/>
    </busStop>
    <busStop id="-4426007148" name="Queen Street Terminal" lane="-174281687_0" startPos="9.82" endPos="24.82" friendlyPos="true"/>
    <busStop id="-9721975023" name="Pasir Ris Interchange" lane="-932283123_0" startPos="37.68" endPos="52.68" friendlyPos="true" lines="5 12 88 12e 68"/>
    <busStop id="-9721975023@12980662" name="Pasir Ris Interchange" lane="-1167314765#1_0" startPos="0.00" endPos="7.50" friendlyPos="true" lines="58B"/>
    <busStop id="1820000344" lane="471889860_0" startPos="0.00" endPos="7.50" friendlyPos="true"/>
    <busStop id="1845246311" name="Blk 55" lane="633790982_0" startPos="95.57" endPos="110.57" friendlyPos="true" lines="31 2B 2"/>
    <busStop id="1845246333" name="Opposite Tanjong Katong Complex" lane="766018309#0_0" startPos="0.00" endPos="7.70" friendlyPos="true"/>
    <busStop id="1847713996" name="Upper East Coast Terminal" lane="528461109_0" startPos="0.00" endPos="9.15" friendlyPos="true" lines="45 853M 13 55 25 43 46 137"/>
    <busStop id="1847853709" name="Punggol Temporary Interchange" lane="631887962#2_0" startPos="73.20" endPos="88.20" friendlyPos="true" lines="34 62 82 83 119 43M 118 50 62A"/>
    <busStop id="1847853709@1149358" name="Punggol Temporary Interchange" lane="74962088_0" startPos="42.23" endPos="57.23" friendlyPos="true" lines="43 43e"/>
    <busStop id="1849631273" name="Blk 557" lane="174281608_0" startPos="217.26" endPos="232.26" friendlyPos="true" lines="114 114A"/>
    <busStop id="1854311858" name="Before Saint Helier&apos;s Avenue" lane="632145655_0" startPos="25.96" endPos="40.96" friendlyPos="true" lines="156"/>
    <busStop id="1854311898" name="Blk 326 Carpark" lane="627326543_0" startPos="69.13" endPos="84.13" friendlyPos="true"/>
    <busStop id="1855320994" name="Kovan Station Exit C" lane="630890250#0_0" startPos="75.07" endPos="85.23" friendlyPos="true" lines="115"/>
    <busStop id="1855321005" name="Opposite Hockey Stadium" lane="175959522_0" startPos="67.89" endPos="82.89" friendlyPos="true" lines="102A"/>
    <busStop id="1863993043" name="After Geylang West Community Club" lane="538624644#0_0" startPos="10.22" endPos="25.22" friendlyPos="true"/>
    <busStop id="1907922930" name="Opposite Blk 432A" lane="627330446_0" startPos="92.63" endPos="107.63" friendlyPos="true" lines="85A 102B 85"/>
    <busStop id="2429952153" name="Tanjong Katong Road South Playground" lane="474450058#1_0" startPos="48.73" endPos="63.73" friendlyPos="true" lines="48"/>
    <busStop id="247182555" lane="478137617_0" startPos="0.00" endPos="7.70" friendlyPos="true"/>
    <busStop id="2763432844" name="Blk 122" lane="477949274#0_0" startPos="0.00" endPos="7.70" friendlyPos="true"/>
    <busStop id="3633794860" name="National Stadium" lane="533042776_0" startPos="58.08" endPos="73.08" friendlyPos="true">
        <access lane="1117998626#0_0" pos="0.74" length="182.30" friendlyPos="1"/>
        <access lane="1117998626#1_0" pos="3.95" length="167.97" friendlyPos="1"/>
        <access lane="182829067#1_0" pos="351.24" length="31.75" friendlyPos="1"/>
        <access lane="182829071#0_0" pos="0.00" length="172.80" friendlyPos="1"/>
        <access lane="288997562_0" pos="103.03" length="53.86" friendlyPos="1"/>
    </busStop>
    <busStop id="3784717388" name="Comfortdelgro Corporation Limited" lane="599489451_0" startPos="83.84" endPos="94.88" friendlyPos="true">
        <access lane="-781995711_0" pos="105.72" length="99.26" friendlyPos="1"/>
        <access lane="363687509#0_0" pos="3.16" length="92.30" friendlyPos="1"/>
        <access lane="363687545_0" pos="55.88" length="66.55" friendlyPos="1"/>
        <access lane="363687628_0" pos="0.00" length="116.38" friendlyPos="1"/>
        <access lane="645272229_0" pos="42.62" length="94.46" friendlyPos="1"/>
    </busStop>
    <busStop id="4021751290" lane="546437384_0" startPos="35.53" endPos="50.53" friendlyPos="true">
        <access lane="-781995711_0" pos="85.78" length="158.20" friendlyPos="1"/>
        <access lane="363687509#0_0" pos="0.00" length="131.76" friendlyPos="1"/>
        <access lane="363687538#0_0" pos="5.88" length="159.92" friendlyPos="1"/>
        <access lane="363687545_0" pos="75.33" length="125.86" friendlyPos="1"/>
        <access lane="645272229_0" pos="62.56" length="153.40" friendlyPos="1"/>
    </busStop>
    <busStop id="410459479" name="Opposite Canossa Convent Primary" lane="474865946_0" startPos="37.93" endPos="45.43" friendlyPos="true" lines="154"/>
    <busStop id="410459633" name="Opposite Ang Mo Kio Swimming Complex" lane="628474828#0_0" startPos="250.55" endPos="265.55" friendlyPos="true" lines="71"/>
    <busStop id="410459710" name="Blk 564" lane="480280668#0_0" startPos="0.00" endPos="7.70" friendlyPos="true" lines="76 268A 132 165 74"/>
    <busStop id="410459713" name="Blk 554" lane="475332210_0" startPos="29.60" endPos="44.60" friendlyPos="true" lines="660">
        <access lane="-632463439#1_0" pos="133.50" length="168.71" friendlyPos="1"/>
        <access lane="22822373#0_0" pos="149.75" length="275.97" friendlyPos="1"/>
        <access lane="537401722#0_0" pos="0.20" length="275.63" friendlyPos="1"/>
        <access lane="537909421_0" pos="27.76" length="282.85" friendlyPos="1"/>
        <access lane="632462154_0" pos="0.00" length="166.14" friendlyPos="1"/>
    </busStop>
    <busStop id="410459791" name="Blk 570" lane="715625191#0_0" startPos="8.05" endPos="17.71" friendlyPos="true" lines="76 268A 132 165 74"/>
    <busStop id="410459791@3561382" name="Blk 570" lane="632731643#0_0" startPos="0.00" endPos="9.63" friendlyPos="true" lines="652"/>
    <busStop id="410459818" name="Nanyang Polytechnic" lane="74867827_0" startPos="225.36" endPos="234.57" friendlyPos="true" lines="72 72A 72B 45"/>
    <busStop id="410459835" name="ITE College Central" lane="22694338_0" startPos="83.35" endPos="98.35" friendlyPos="true"/>
    <busStop id="410459895" name="Blk 504" lane="632724011_0" startPos="87.21" endPos="102.21" friendlyPos="true"/>
    <busStop id="410459896" name="Blk 354" lane="22650763#0_0" startPos="9.66" endPos="24.66" friendlyPos="true"/>
    <busStop id="410459897" name="Blk 420" lane="482256070#0_0" startPos="24.27" endPos="31.78" friendlyPos="true" lines="162 853 853M"/>
    <busStop id="410459907" name="Opposite Nanyang Polytechnic" lane="75236705_0" startPos="139.74" endPos="154.74" friendlyPos="true"/>
    <busStop id="410459909" name="Nanyang Polytechnic" lane="634073640_0" startPos="192.51" endPos="207.51" friendlyPos="true" lines="72 72A 72B"/>
    <busStop id="410460005" name="Ang Mo Kio Interchange" lane="661322627#1_0" startPos="0.00" endPos="7.50" friendlyPos="true" lines="22 24 25 73 130 133 135 136 73T 261 265"/>
    <busStop id="410460005@2349831" name="Ang Mo Kio Interchange" lane="174049665_0" startPos="31.79" endPos="46.79" friendlyPos="true" lines="262"/>
    <busStop id="410460362" name="Singapore Indian Association" lane="617923184_0" startPos="124.10" endPos="139.10" friendlyPos="true" lines="130 139"/>
    <busStop id="410460363" name="Northlight School" lane="778202758#0_0" startPos="16.93" endPos="31.93" friendlyPos="true"/>
    <busStop id="410460483" name="After Bartley Station Exit B" lane="633300678_0" startPos="4.53" endPos="19.53" friendlyPos="true">
        <access lane="-301419637#1_0" pos="0.00" length="212.68" friendlyPos="1"/>
        <access lane="-646140872_0" pos="0.00" length="253.32" friendlyPos="1"/>
        <access lane="-646140873#2_0" pos="60.33" length="251.48" friendlyPos="1"/>
        <access lane="301419637#0_0" pos="44.58" length="213.76" friendlyPos="1"/>
        <access lane="646140873#0_0" pos="6.73" length="256.28" friendlyPos="1"/>
    </busStop>
    <busStop id="410460609" name="Bartley Christian Church" lane="633300678_0" startPos="4.27" endPos="19.27" friendlyPos="true">
        <access lane="-633300676#1_0" pos="31.78" length="24.47" friendlyPos="1"/>
        <access lane="-646329124#2_0" pos="49.82" length="75.13" friendlyPos="1"/>
        <access lane="-698045978_0" pos="77.48" length="74.45" friendlyPos="1"/>
        <access lane="301419552#0_0" pos="0.00" length="70.68" friendlyPos="1"/>
        <access lane="633300676#0_0" pos="1.36" length="34.07" friendlyPos="1"/>
    </busStop>
    <busStop id="410460657" name="Bartley Station Exit A" lane="633564836_0" startPos="130.07" endPos="145.07" friendlyPos="true">
        <access lane="-168189202_0" pos="0.00" length="217.92" friendlyPos="1"/>
        <access lane="-301419689#1_0" pos="0.25" length="255.34" friendlyPos="1"/>
        <access lane="-646140873#2_0" pos="21.60" length="255.00" friendlyPos="1"/>
        <access lane="640229782#0_0" pos="139.35" length="213.88" friendlyPos="1"/>
        <access lane="646140873#0_0" pos="44.93" length="259.80" friendlyPos="1"/>
    </busStop>
    <busStop id="410460730" name="Saint John Headquarters" lane="828660096#1_0" startPos="34.83" endPos="49.83" friendlyPos="true"/>
    <busStop id="410460771" name="Opposite Blk 416" lane="635168430#0_0" startPos="0.00" endPos="7.70" friendlyPos="true"/>
    <busStop id="410461378" name="Between Blks 705/706" lane="173954638#0_0" startPos="5.39" endPos="20.39" friendlyPos="true"/>
    <busStop id="410461403" name="Blk 547" lane="74675117_0" startPos="259.29" endPos="274.29" friendlyPos="true"/>
    <busStop id="410461432" name="Blk 45" lane="74519539_0" startPos="105.65" endPos="120.65" friendlyPos="true" lines="137A"/>
    <busStop id="410461542" name="Blk 81" lane="74519530#1_0" startPos="5.40" endPos="20.40" friendlyPos="true" lines="14e"/>
    <busStop id="410461583" name="Blk 609" lane="633788632#0_0" startPos="0.00" endPos="9.41" friendlyPos="true"/>
    <busStop id="410461611" name="Blk 608" lane="41499776_0" startPos="0.00" endPos="7.50" friendlyPos="true"/>
    <busStop id="410461623" name="Blk 703" lane="651082691_0" startPos="26.11" endPos="41.11" friendlyPos="true"/>
    <busStop id="410461624" name="Blk 745" lane="22718806#0_0" startPos="0.00" endPos="7.70" friendlyPos="true"/>
    <busStop id="410461625" name="Blk 121" lane="537766007#0_0" startPos="53.59" endPos="68.59" friendlyPos="true"/>
    <busStop id="410461631" name="Blk 713" lane="649353549_0" startPos="42.43" endPos="57.43" friendlyPos="true"/>
    <busStop id="410461661" name="Blk 50" lane="474489305_0" startPos="8.25" endPos="23.25" friendlyPos="true" lines="12e"/>
    <busStop id="410461836" name="Bishan Interchange" lane="369946594#3_0" startPos="26.10" endPos="41.10" friendlyPos="true" lines="53 55 58 50"/>
    <busStop id="410461836@1149524" name="Bishan Interchange" lane="543606675_0" startPos="0.00" endPos="7.50" friendlyPos="true" lines="59"/>
    <busStop id="410462105" name="Blk 209" lane="174886148_0" startPos="27.24" endPos="42.24" friendlyPos="true" lines="53M"/>
    <busStop id="410462114" name="BCA Academy" lane="546437384_0" startPos="35.53" endPos="50.53" friendlyPos="true" lines="13 93 153 105">
        <access lane="-781995711_0" pos="85.91" length="169.91" friendlyPos="1"/>
        <access lane="363687509#0_0" pos="0.00" length="136.46" friendlyPos="1"/>
        <access lane="363687538#0_0" pos="5.88" length="163.74" friendlyPos="1"/>
        <access lane="363687545_0" pos="75.10" length="137.57" friendlyPos="1"/>
        <access lane="645272229_0" pos="62.43" length="165.11" friendlyPos="1"/>
    </busStop>
    <busStop id="410462187" name="Opposite Blk 968" lane="22652298#0_0" startPos="132.21" endPos="145.44" friendlyPos="true" lines="660"/>
    <busStop id="410462291" name="Blk 969" lane="175010893#0_0" startPos="240.51" endPos="255.51" friendlyPos="true"/>
    <busStop id="410463912" name="After Gloucester Road" lane="752181182#0_0" startPos="0.00" endPos="7.70" friendlyPos="true"/>
    <busStop id="410464100" name="Before Pasir Ris Avenue" lane="539462681_0" startPos="55.88" endPos="70.88" friendlyPos="true"/>
    <busStop id="410464477" name="Opposite Grandlink Square" lane="39962925#0_0" startPos="0.00" endPos="12.54" friendlyPos="true"/>
    <busStop id="410464843" name="Opposite Blk 521" lane="475325982#0_0" startPos="0.00" endPos="7.70" friendlyPos="true"/>
    <busStop id="410464890" name="Punggol Community Club" lane="633859620_0" startPos="31.07" endPos="46.07" friendlyPos="true"/>
    <busStop id="410464892" name="Opposite Punggol Community Club" lane="655061104_0" startPos="54.23" endPos="69.23" friendlyPos="true"/>
    <busStop id="410464919" name="Hougang 1" lane="639396944_0" startPos="78.64" endPos="93.64" friendlyPos="true"/>
    <busStop id="410464925" name="Blk 836" lane="74549000#0_0" startPos="0.00" endPos="13.37" friendlyPos="true" lines="165 116 329"/>
    <busStop id="410464928" name="Hougang Central Interchange" lane="512918263#0_0" startPos="0.00" endPos="7.70" friendlyPos="true" lines="27"/>
    <busStop id="410464928@1149453" name="Hougang Central Interchange" lane="74549004#1_0" startPos="32.17" endPos="47.17" friendlyPos="true" lines="51 74 107 112 113 132 147 151 161 165 147A 325 107M 116 102 153 329"/>
    <busStop id="410464928@1151986" name="Hougang Central Interchange" lane="512918262_0" startPos="2.10" endPos="9.60" friendlyPos="true" lines="89"/>
    <busStop id="410465915" name="Opposite Eunos Station" lane="473440854_0" startPos="0.00" endPos="7.70" friendlyPos="true">
        <access lane="-99446911#2_0" pos="32.27" length="58.03" friendlyPos="1"/>
        <access lane="465796473#3_0" pos="54.77" length="90.98" friendlyPos="1"/>
        <access lane="749879106#0_0" pos="33.91" length="52.43" friendlyPos="1"/>
        <access lane="99446911#0_0" pos="10.84" length="62.83" friendlyPos="1"/>
        <access lane="99446912#0_0" pos="65.82" length="88.03" friendlyPos="1"/>
    </busStop>
    <busStop id="410465918" name="Eunos Station" lane="770367113_0" startPos="37.17" endPos="52.17" friendlyPos="true" lines="60 63 94 60A 94A 63A 60T 63M 22 61 93">
        <access lane="-99446911#2_0" pos="0.00" length="132.09" friendlyPos="1"/>
        <access lane="-99446912#1_0" pos="10.21" length="131.60" friendlyPos="1"/>
        <access lane="749879106#0_0" pos="33.91" length="75.87" friendlyPos="1"/>
        <access lane="99446911#0_0" pos="43.30" length="136.56" friendlyPos="1"/>
        <access lane="99446912#0_0" pos="55.61" length="126.80" friendlyPos="1"/>
    </busStop>
    <busStop id="410466064" name="After Blk 195" lane="34123713_0" startPos="0.00" endPos="14.67" friendlyPos="true" lines="154 966A 985 966 151"/>
    <busStop id="410466071" name="Opposite Blk 195" lane="74484452_0" startPos="31.19" endPos="46.19" friendlyPos="true"/>
    <busStop id="410466805" name="Before Kaki Bukit Station Exit B" lane="537766001#0_0" startPos="0.00" endPos="12.55" friendlyPos="true"/>
    <busStop id="410466808" name="Kaki Bukit Station Exit A" lane="174035880#0_0" startPos="0.00" endPos="12.74" friendlyPos="true" lines="5"/>
    <busStop id="410466824" name="Lavender Station Exit B" lane="660086364_0" startPos="28.79" endPos="36.29" friendlyPos="true" lines="61 175 107 12 133 145 197 2 32 33 51 7 80"/>
    <busStop id="410466847" name="Opposite Parish Of Christ Church" lane="656737815#0_0" startPos="0.00" endPos="9.84" friendlyPos="true" lines="166 56 57 851"/>
    <busStop id="410467137" name="Lorong 1 Geylang Terminal" lane="666582869#1_0" startPos="16.62" endPos="31.62" friendlyPos="true" lines="140 175 980 985"/>
    <busStop id="410467137@6623086" name="Lorong 1 Geylang Terminal" lane="771191891#0_0" startPos="0.00" endPos="7.50" friendlyPos="true" lines="853"/>
    <busStop id="410467567" name="Opposite Victoria School" lane="474431399_0" startPos="102.10" endPos="117.10" friendlyPos="true" lines="196e"/>
    <busStop id="410467573" name="Between Blks 72/74" lane="474427034_0" startPos="18.85" endPos="33.85" friendlyPos="true" lines="36 36B">
        <access lane="-736211943_0" pos="59.59" length="104.19" friendlyPos="1"/>
        <access lane="1075740308_0" pos="96.88" length="52.44" friendlyPos="1"/>
        <access lane="633433734#1_0" pos="73.37" length="1.86" friendlyPos="1"/>
        <access lane="646693374#0_0" pos="0.00" length="42.29" friendlyPos="1"/>
        <access lane="736211943_0" pos="0.00" length="102.82" friendlyPos="1"/>
    </busStop>
    <busStop id="410467573@12401146" name="Between Blks 72/74" lane="633433734#1_0" startPos="40.18" endPos="55.18" friendlyPos="true" lines="135 43e 196e 36A"/>
    <busStop id="410467741" name="Katong Park Towers" lane="538747209_0" startPos="25.84" endPos="40.84" friendlyPos="true"/>
    <busStop id="410467867" name="Tanah Merah Station Exit B" lane="802898452#0_0" startPos="6.76" endPos="21.76" friendlyPos="true" lines="12e"/>
    <busStop id="410467993" name="Opposite Nicoll Highway Station" lane="477919593_0" startPos="211.98" endPos="226.98" friendlyPos="true" lines="16M 10 14 16 196 70">
        <access lane="-676705881#1_0" pos="0.00" length="159.59" friendlyPos="1"/>
        <access lane="190945738#0_0" pos="37.80" length="181.04" friendlyPos="1"/>
        <access lane="22381778#0_0" pos="0.00" length="171.08" friendlyPos="1"/>
        <access lane="465314690#0_0" pos="82.94" length="168.94" friendlyPos="1"/>
        <access lane="638100591_0" pos="22.53" length="174.12" friendlyPos="1"/>
    </busStop>
    <busStop id="410468043" name="Nicoll Highway Station" lane="190945734#1_0" startPos="54.14" endPos="69.14" friendlyPos="true">
        <access lane="-676705881#1_0" pos="0.00" length="124.13" friendlyPos="1"/>
        <access lane="190945738#0_0" pos="37.80" length="99.10" friendlyPos="1"/>
        <access lane="22381778#0_0" pos="4.68" length="125.75" friendlyPos="1"/>
        <access lane="534674929_0" pos="118.22" length="112.46" friendlyPos="1"/>
        <access lane="711177873_0" pos="18.11" length="122.27" friendlyPos="1"/>
    </busStop>
    <busStop id="410468171" name="Blk 39" lane="474640784_0" startPos="20.45" endPos="35.45" friendlyPos="true" lines="30"/>
    <busStop id="410468173" name="Blk 22" lane="763947021_0" startPos="10.34" endPos="25.34" friendlyPos="true" lines="10"/>
    <busStop id="410468829" name="Blk 115" lane="175959507#0_0" startPos="0.00" endPos="11.17" friendlyPos="true" lines="81"/>
    <busStop id="410468829@6622943" name="Blk 115" lane="711920246_0" startPos="0.00" endPos="7.50" friendlyPos="true" lines="109"/>
    <busStop id="410474077" name="Ranggung Station Exit A" lane="479338622#2_0" startPos="68.13" endPos="83.13" friendlyPos="true" lines="89e"/>
    <busStop id="410474370" name="Before Buangkok Drive" lane="624300975_0" startPos="82.50" endPos="97.50" friendlyPos="true" lines="161"/>
    <busStop id="410474760" name="Opposite Sengkang General Hospital" lane="717470516_0" startPos="39.27" endPos="47.22" friendlyPos="true"/>
    <busStop id="410475009" name="Blk 317B" lane="635658664_0" startPos="155.35" endPos="170.35" friendlyPos="true" lines="102A"/>
    <busStop id="410475011" name="Sengkang Interchange" lane="201274553_0" startPos="0.00" endPos="5.17" friendlyPos="true" lines="80 87 163 80A 163A"/>
    <busStop id="410475011@1154457" name="Sengkang Interchange" lane="201274554#1_0" startPos="23.93" endPos="38.63" friendlyPos="true" lines="156 159 372"/>