<?xml version="1.0" encoding="UTF-8"?>

<!-- generated on 2024-01-24 13:09:23.258249 by $Id: ptlines2flows.py v1_3_1+0313-ccb31df3eb jakob.erdmann@dlr.de 2019-09-02 13:26:32 +0200 $ v1_14_1+0000-f654d7b963e
  options: 
-->

<routes xmlns:xsi="http://www.w3.org/2001/XMLSchema-instance" xsi:noNamespaceSchemaLocation="http://sumo.dlr.de/xsd/routes_file.xsd">
    <vType id="pt_bus" vClass="bus"/>
    <vType id="pt_tram" vClass="tram"/>
    <vType id="pt_train" vClass="rail"/>
    <vType id="pt_subway" vClass="rail_urban"/>
    <vType id="pt_light_rail" vClass="rail_urban"/>
    <vType id="pt_monorail" vClass="rail"/>
    <vType id="pt_trolleybus" vClass="bus"/>
    <vType id="pt_minibus" vClass="bus"/>
    <vType id="pt_share_taxi" vClass="taxi"/>
    <vType id="pt_aerialway" vClass="bus"/>
    <vType id="pt_ferry" vClass="ship"/>
    <route id="pt_bus_24:0" edges="661322627#0 661322627#1 736482787#0 543768663" >
        <stop busStop="410460005" duration="20" until="64.0"/> <!-- Ang Mo Kio Interchange -->
    </route>
    <route id="pt_bus_9:0" edges="174035935#0 174035935#1 527918448#1 620258587 669044477 174035873 620258593" >
        <stop busStop="410487306@1147413" duration="20" until="93.0"/> <!-- Bedok Interchange -->
    </route>
    <route id="pt_bus_85:0" edges="631887962#2" >
        <stop busStop="1847853709" duration="20" until="50.0"/> <!-- Punggol Temporary Interchange -->
    </route>
    <route id="pt_bus_105:0" edges="174886218#0 174886218#1 174886218#2" >
    </route>
    <route id="pt_bus_73:0" edges="661322627#0 661322627#1 736482787#0 543768663" >
        <stop busStop="410460005" duration="20" until="94.0"/> <!-- Ang Mo Kio Interchange -->
    </route>
    <route id="pt_bus_64:0" edges="465499122#0 -585646218#1 539649803#0 753173034 -475936549 -632566183 -665782174 -475940340 -643746016#2 633850853 475940337#0 -632566183" >
        <stop busStop="-410475478" duration="20" until="79.0"/> <!-- Sims Place Terminal -->
    </route>
    <route id="pt_bus_112:0" edges="629342912 630491562 512918263#0 74549004#1 617971364 74549004#3 201275786#0 349537828 512918260" >
        <stop busStop="410464928@1149453" duration="20" until="91.0"/> <!-- Hougang Central Interchange -->
    </route>
    <route id="pt_bus_83T:0" edges="631887962#2" >
        <stop busStop="1847853709" duration="20" until="77.0"/> <!-- Punggol Temporary Interchange -->
    </route>
    <route id="pt_bus_142:0" edges="-533476180#1 464307274 -481679398 533476180#0" >
        <stop busStop="410479727" duration="20" until="72.0"/> <!-- Opposite Toa Payoh Swimming Complex -->
    </route>
    <route id="pt_bus_88B:0" edges="715625191#0" >
        <stop busStop="410459791" duration="20" until="34.0"/> <!-- Blk 570 -->
    </route>
    <route id="pt_bus_55:0" edges="630810315 481885213#0 74690116#0 630843936#0 630871452#0 800266761 93841131#0 369946594#1 369946594#3 528930920#2 543606675 503164319 630871449 464804348#0" >
        <stop busStop="410461836" duration="20" until="151.0"/> <!-- Bishan Interchange -->
    </route>
    <route id="pt_bus_82:0" edges="1111008091#0 1111008092#0 631887962#0 631887962#1 631887962#2 631887962#3 631887962#4 1111008091#0 173767825#0 620524552 620524553 582412270#0 582412271#0 198458261#0" >
        <stop busStop="1847853709" duration="20" until="94.0"/> <!-- Punggol Temporary Interchange -->
    </route>
    <route id="pt_bus_109A:0" edges="174886218#0 174886218#1 174886218#2 174886218#3 543748598#0" >
        <stop busStop="410475113" duration="20" until="113.0"/> <!-- Serangoon Interchange -->
    </route>
    <route id="pt_bus_668:1" edges="480280668#0" >
        <stop busStop="410459710" duration="20" until="31.0"/> <!-- Blk 564 -->
    </route>
    <route id="pt_bus_40:0" edges="174035935#0 174035935#1 527918448#1 620258587 669044477 174035873 620258593" >
        <stop busStop="410487306@1147413" duration="20" until="201.0"/> <!-- Bedok Interchange -->
    </route>
    <route id="pt_bus_58:0" edges="630810315 481885213#0 74690116#0 630843936#0 630871452#0 800266761 93841131#0 369946594#1 369946594#3 528930920#2 543606675 503164319 630871449 464804348#0" >
        <stop busStop="410461836" duration="20" until="183.0"/> <!-- Bishan Interchange -->
    </route>
    <route id="pt_bus_39:0" edges="446034706#0 512918017 472853514 472853515#0 587000184#0 472853513#0 473173017 783823669 472116143 649381117 472116142#0 542680705#0 1000505888#0 1180599555 1108000171#0 1108000171#2 1108000170 655189061 176204509 639048067 169742581 169742580 635714801 655679402 655679401 472099086#0 472099086#1 470479207 649442275 617971451#0 174035892 477957122 537933596" >
        <stop busStop="4443169933" duration="20" until="31.0"/> <!-- Tampines Concourse Interchange -->
    </route>
    <route id="pt_bus_100A:0" edges="174886218#3" >
        <stop busStop="410475113" duration="20" until="50.0"/> <!-- Serangoon Interchange -->
    </route>
    <route id="pt_bus_125:0" edges="-463966786 -644876075 -750549303#1 173713441#0 140743355 637056690 768020197 697180831 865239292 750742586 464288920#0 -173713442 650914615" >
        <stop busStop="-1573773447" duration="20" until="31.0"/> <!-- Saint Michael's Terminal -->
    </route>
    <route id="pt_bus_671:0" edges="479338622#2" >
        <stop busStop="410474077" duration="20" until="45.0"/> <!-- Ranggung Station Exit A -->
    </route>
    <route id="pt_bus_113A:0" edges="630890250#0" >
        <stop busStop="1855320994" duration="20" until="66.0"/> <!-- Kovan Station Exit C -->
    </route>
    <route id="pt_bus_63:0" edges="479169486#0 479169488 176204437 630397573 633268070 473439151#0 473439151#1 826116981 726600900 826116980 473440854 473440852 473440856#0 632474268 74522411 655146644#0 21464260 632486028 585646220#0 770367113 475343499 539642111 479779415 539642108 475345959 475345961#0 539642093#0 634284444 632985875 649632496 1167108141#0" >
        <stop busStop="410465918" duration="20" until="181.0"/> <!-- Eunos Station -->
    </route>
    <route id="pt_bus_222A:0" edges="669044477 174035873 464288999 635480149#0 464288998 464288993#0 464288990 798289933 464289002#0 -630416469#1 -175959499 -661312525 -651985757 -656747047 656747047" >
        <stop busStop="410487306@12980585" duration="20" until="124.0"/> <!-- Bedok Interchange -->
    </route>
    <route id="pt_bus_48:0" edges="655149248 473404168 473404169#0 473402818 473402819 585994939#0 659864632 768471958 659864631 802898451 473376604 666654515 464130509#0 475315914 475315916#0 474489306#0 474489305 635136515 597133622#0 638247791 585994790 635745823#0 659852681#1 802898452#0 633798203 473404173 464129489#0 538298382 655149205 473402815 655149248" >
        <stop busStop="4569989789" duration="20" until="129.0"/> <!-- Opposite Blk 49 -->
    </route>
    <route id="pt_bus_71:0" edges="799563539#0 479762709#0 479762709#1 479762987 479762986#0 628187169#0 628474828#0" >
        <stop busStop="410459633" duration="20" until="154.0"/> <!-- Opposite Ang Mo Kio Swimming Complex -->
    </route>
    <route id="pt_bus_LCS1:0" edges="74866654#0" >
        <stop busStop="410477188" duration="20" until="34.0"/> <!-- Blk 730 -->
    </route>
    <route id="pt_bus_34:0" edges="476148403 476148404#0 582412285#0 651981596 620524556 620524555 582412268#0 582412271#0 198458261#0 1111008092#0 631887962#0 631887962#1 631887962#2 631887962#3 631887962#4 1111008091#0 724076802#0 476395133 708819911 445282971#0 445282963#0 74962070 476389868 786079112 476389869#0 582412255#0 174886183#0 476148399" >
        <stop busStop="1847853709" duration="20" until="184.0"/> <!-- Punggol Temporary Interchange -->
    </route>
    <route id="pt_bus_159B:0" edges="74867827" >
        <stop busStop="410459818" duration="20" until="65.0"/> <!-- Nanyang Polytechnic -->
    </route>
    <route id="pt_bus_60:0" edges="479169486#0 479169488 176204437 630397573 633268070 473439151#0 473439151#1 826116981 726600900 826116980 473440854 473440852 473440856#0 632474268 74522411 655146644#0 21464260 632486028 585646220#0 770367113 475343499 539642111 479779415 539642108 475345959 475345961#0 539642093#0 634284444 632985875 649632496 1167108141#0" >
        <stop busStop="410465918" duration="20" until="225.0"/> <!-- Eunos Station -->
    </route>
    <route id="pt_bus_72B:0" edges="634073640 652259655 482086352 37396748#0 74867827 536925729#0 175959406 830710208 715296650 630458496 630806138#0 22694338" >
        <stop busStop="410459909" duration="20" until="87.0"/> <!-- Nanyang Polytechnic -->
        <stop busStop="410459818" duration="20" until="165.0"/> <!-- Nanyang Polytechnic -->
    </route>
    <route id="pt_bus_27:0" edges="476695961#0 632389338 479743210 597259644#0 632378380#0 476695958 476695960#0 74769647#0 629371370 655061104 633248398#0 475325982#0 475326808 464230124#0 34586157 33769386#0 175015662 632790694#0 726039435 512918260 512918262 512918263#0 74549004#1 617971364 74549004#3 201275786#0 74548998#0 174886163" >
        <stop busStop="410464928" duration="20" until="276.0"/> <!-- Hougang Central Interchange -->
    </route>
    <route id="pt_bus_293:0" edges="74866654#0" >
        <stop busStop="410477188" duration="20" until="33.0"/> <!-- Blk 730 -->
    </route>
    <route id="pt_bus_159A:0" edges="201274553" >
        <stop busStop="410475011" duration="20" until="31.0"/> <!-- Sengkang Interchange -->
    </route>
    <route id="pt_bus_94:0" edges="479169486#0 479169488 176204437 630397573 633268070 473439151#0 473439151#1 826116981 726600900 826116980 473440854 473440852 473440856#0 632474268 74522411 655146644#0 21464260 632486028 585646220#0 770367113 475343499 539642111 479779415 539642108 475345959 475345961#0 539642093#0 634284444 632985875 649632496 1167108141#0" >
        <stop busStop="410465918" duration="20" until="208.0"/> <!-- Eunos Station -->
    </route>
    <route id="pt_bus_59:0" edges="543606675 503164319 630871449 629440550#0 74690114#0 628704638#0 546430019 117055178 546437384 628235121 847919211 628211549 37553786 465292069 651968739#0 482107090 652008638 251597152 251597147 482107099 627319476 176296745 37635198 479175252 174552508 633292934" >
        <stop busStop="410461836@1149524" duration="20" until="31.0"/> <!-- Bishan Interchange -->
    </route>
    <route id="pt_bus_262:0" edges="174041987#0 22719965#0 174049665" >
        <stop busStop="410460005@2349831" duration="20" until="78.0"/> <!-- Ang Mo Kio Interchange -->
    </route>
    <route id="pt_bus_113:0" edges="464230148#0 652555611#0 476407135 476407136 476407137#0 175020554#0 627916587 634124885 475924615#0 464307244#0 464307239#0 628190144#0 630838016 630836243#0 630836242 797257259 475362978 464307231#0 464307236#0 629342912 630491562 512918263#0 74549004#1 617971364 74549004#3" >
        <stop busStop="410464928@1149453" duration="20" until="283.0"/> <!-- Hougang Central Interchange -->
    </route>
    <route id="pt_bus_140:0" edges="666582869#1" >
        <stop busStop="410467137" duration="20" until="39.0"/> <!-- Lorong 1 Geylang Terminal -->
    </route>
    <route id="pt_bus_132:0" edges="629359521 475364578#0 475919821#0 631793083#0 631793083#1 630830009 630827832 629347659 464230152#0 629342912 630491562 512918263#0 74549004#1 617971364 74549004#3 201275786#0 349537828 512918260 726039434#0 797231591 475924616 464307237#0 464307234#0 629359521" >
        <stop busStop="410464928@1149453" duration="20" until="159.0"/> <!-- Hougang Central Interchange -->
    </route>
    <route id="pt_bus_60A:0" edges="479169486#0 479169488 176204437 630397573 633268070 473439151#0 473439151#1 826116981 726600900 826116980 473440854 473440852 473440856#0 632474268 74522411 655146644#0 21464260 632486028 585646220#0 770367113 475343499 655147259#0 473440858" >
        <stop busStop="410465918" duration="20" until="244.0"/> <!-- Eunos Station -->
    </route>
    <route id="pt_bus_87:0" edges="652201795 479338625 479338624#0 448937568#0 74966467#0 623701751#0 536420732#0 727946421 623709161 448937569#0 22652720#0 1057560064 627941284 448937461#0 536039177#0 655149202 655149201 627933064 450926157#0 464288980 627921870#0 627921866#0 174886208 -175540523#1 201274554#1 201274554#2 201274554#3 201274554#0 201274553 174886211 627921867 302094715#0 617971379 824747551 617971380#0 478884699#0 627941283 448937463#0 448937462#0 478299272 623709159 448937707#0 74549033 479338623 536420733#0 479338622#0 479338622#2" >
        <stop busStop="410475011" duration="20" until="262.0"/> <!-- Sengkang Interchange -->
    </route>
    <route id="pt_bus_162:0" edges="659856869 630488641#0 630488643 822122736 654724769 174049653#0 630171311 538440080#0 652293279 482256070#0 652293278 635112968#0 652558527 482087329#0 633219124#0 655590388 633149548 22650763#0 655227868 536925684#0 634477657 715632786#0 788785083 538213807" >
        <stop busStop="410459897" duration="20" until="132.0"/> <!-- Blk 420 -->
    </route>
    <route id="pt_bus_53:0" edges="74694931 628462604 628462606 628187168#0 594262535#0 22694270#0 634503752 482087340 537159967 651101802 640194866#0 646435084#0 816736129 -646935399#1 800251718 800266761 93841131#0 369946594#1 369946594#3 528930920#2 543606675 174402281#0 -632078160#2 -632078159#1 -632078157#1 -562357565#1 562357566 634492467 634492466 512991737#0 512991741#0 74694931" >
        <stop busStop="410461836" duration="20" until="272.0"/> <!-- Bishan Interchange -->
    </route>
    <route id="pt_bus_68:0" edges="537933592 470898563#0 655685048#0 655685045 109687930 537933591 470386836#0 617971453#0 649538672 470705748#0 470705749#0 635654055 470386841#0 1167314765#0 1167314764 932283123 -932283123 -1167314764" >
        <stop busStop="-9721975023" duration="20" until="273.0"/> <!-- Pasir Ris Interchange -->
    </route>
    <route id="pt_bus_81:0" edges="175841898#0 472808338#0 74614937#0 22719328#0 22719328#2 783823671 473173013#0 473173016#0 472116143 649381117 472116142#0 542680705#0 1000505888#0 1180599555 1108000171#0 1108000171#2 1108000170 655189061 176204509 639048067 169742581 169742580 635714801 655679402 655679401 472099086#0 472099086#1 470479207 649442275 617971451#0 174035892 635666480#0 385064937 652173963#0 537933597#0 803697903#0 641134728#0 655189831 173767791#0 470472091#0" >
    </route>
    <route id="pt_bus_114:0" edges="626535982 624291892 624291891#0 537979489#0 624291890 623353012 383281870#0 632378379#0 174281608 479747060 445716680#0 445716678#0 174281606 623353016 623353013 383281888#0 624291909 537979490 624291908#0 624291888#0 624964395" >
        <stop busStop="1849631273" duration="20" until="170.0"/> <!-- Blk 557 -->
    </route>
    <route id="pt_bus_235:0" edges="-533476180#1 464307274 481679399 259686640 481618764#0 481618763#0 640194018" >
        <stop busStop="-410479708@12980591" duration="20" until="31.0"/> <!-- Toa Payoh Interchange -->
        <stop busStop="410479727" duration="20" until="79.0"/> <!-- Opposite Toa Payoh Swimming Complex -->
    </route>
    <route id="pt_bus_107:0" edges="631774300 634037457 536420702 475919819 631745430 464230130#0 475919822 475919823 537062191#0 475919821#0 631793083#0 631793083#1 630830009 630827832 629347659 464230152#0 629342912 630491562 512918263#0 74549004#1 617971364 74549004#3 201275786#0 74548998#0 174886163 74549000#0 726026220#0 633576260#0 464230125#0 632107267 725272423 475327843 305948188#0 631774300" >
        <stop busStop="410464928@1149453" duration="20" until="204.0"/> <!-- Hougang Central Interchange -->
    </route>
    <route id="pt_bus_94A:0" edges="479169486#0 479169488 176204437 630397573 633268070 473439151#0 473439151#1 826116981 726600900 826116980 473440854 473440852 473440856#0 632474268 74522411 655146644#0 21464260 632486028 585646220#0 770367113 475343499 655147259#0 473440858" >
        <stop busStop="410465918" duration="20" until="276.0"/> <!-- Eunos Station -->
    </route>
    <route id="pt_bus_88:0" edges="174035899#0 537933592 470898563#0 655685048#0 655685045 109687930 537933591 470386836#0 617971453#0 649538672 470705748#0 470705749#0 635654055 470386841#0 1167314765#0 1167314764 932283123 -932283123 -1167314764 -1167314765#1 173767807#0 470386840 635687122#0 635686861#0 173182613#0" >
        <stop busStop="-9721975023" duration="20" until="287.0"/> <!-- Pasir Ris Interchange -->
    </route>
    <route id="pt_bus_156:0" edges="74962075 476705427 476440472#0 476440471#0 623718344 476689614 655147846 445716749#0 445716747#0 174886201 627686931 536420698#0 635688468 627918602 627918601#0 174886215#0 174886215#2 734822024 302094719#0 174886208 -175540523#1 201274554#1 201274554#2 201274554#3 482943172 174886213#0 652041096#0 655138269#0 649391808 627969440 447713025#0 174886202#0 718229612 476689637#0 174886199#0 630427575#1 476705431 718229611 445716742#0 445716746#0 74962075" >
        <stop busStop="410475011@1154457" duration="20" until="185.0"/> <!-- Sengkang Interchange -->
    </route>
    <route id="pt_bus_145:0" edges="528535334#0" >
        <stop busStop="410479708" duration="20" until="31.0"/> <!-- Toa Payoh Interchange -->
    </route>
    <route id="pt_bus_69:0" edges="123662591#0 537926845#0 668869577#0 669629963 641084220 536661793#0 536661793#1 655662328 655662325#0 655662325#1 536661790 472647976#0 536661791#0 641089656 651950646 536661792#1 666936959 536661794 641084223 472648774 472650080#0 536661798#0 536661798#2 669629963 641084220 536661793#0 536661793#1 655662328 655662325#0 655662325#1 536661790 472647976#0 174765822#0 472032729 175959537 471889862#0 673049990#0 537996945#0" >
        <stop busStop="410476781" duration="20" until="255.0"/> <!-- Opposite Temasek Polytechnic East G -->
    </route>
    <route id="pt_bus_90:0" edges="464150154 464307259 464307274 -481679398 528535334#0" >
        <stop busStop="410479727" duration="20" until="57.0"/> <!-- Opposite Toa Payoh Swimming Complex -->
    </route>
    <route id="pt_bus_136:1" edges="631887962#2" >
        <stop busStop="1847853709" duration="20" until="63.0"/> <!-- Punggol Temporary Interchange -->
    </route>
    <route id="pt_bus_157:0" edges="464150154 464307259 464307274 464150145#0 644926146#0 658187507#0 657691228#0 159630225#0 644822459 447712975#0 657689877 762777104 22298369 482089304#0 482089305 37553427#0 630802882 634034910" >
        <stop busStop="410479708@1154459" duration="20" until="41.0"/> <!-- Toa Payoh Interchange -->
        <stop busStop="410479727" duration="20" until="121.0"/> <!-- Opposite Toa Payoh Swimming Complex -->
    </route>
    <route id="pt_bus_147:0" edges="630824917 628177813#0 464307246#0 464307239#0 628190144#0 630838016 630836243#0 630836242 797257259 475362978 464307231#0 464307236#0 629342912 630491562 512918263#0 74549004#1 617971364 74549004#3 201275786#0 349537828 512918260 726039434#0 797231591 475924616 464230151#0 629327884#0 630494748 630824917" >
        <stop busStop="410464928@1149453" duration="20" until="233.0"/> <!-- Hougang Central Interchange -->
    </route>
    <route id="pt_bus_137A:0" edges="656747043 655522687 325024329#0 -325024329#0 -655522687 -655522688 -655522689 -655522690 -661313506 -630416473 174281599#0 74483193 474471913#0 74528868 630173743 474471917#0 200159273 474471920 464760647#0 74519539 655696707 74675125 651920737 539042622" >
        <stop busStop="410461432" duration="20" until="197.0"/> <!-- Blk 45 -->
    </route>
    <route id="pt_bus_159:0" edges="74962075 476705427 476440472#0 476440471#0 623718344 476689614 655147846 445716749#0 445716747#0 174886201 627686931 536420698#0 635688468 627918602 627918601#0 174886215#0 174886215#2 734822024 302094719#0 174886208 -175540523#1 201274554#1 201274554#2 201274554#3 482943172 174886213#0 652041096#0 655138269#0 649391808 627969440 447713025#0 174886202#0 718229612 476689637#0 174886199#0 630427575#1 476705431 718229611 445716742#0 445716746#0 74962075" >
        <stop busStop="410475011@1154457" duration="20" until="229.0"/> <!-- Sengkang Interchange -->
    </route>
    <route id="pt_bus_115:0" edges="632410731 -766416315#1 -22964797#4 655677828#0 632046417 475407233 475918127 633560990#0 464826978#0 630902085#0 630896117 463990490#0 630890250#0 631708004#0 631708005 -537062194#1 -631708004#1 -826063490 -630887715#1 22964796#0 477929142 475952928#0 630432548#0 782293048 475918136#0 448937478#0 74889808#0 475378463 475378464 475378467 445716698#0" >
        <stop busStop="1855320994" duration="20" until="173.0"/> <!-- Kovan Station Exit C -->
    </route>
    <route id="pt_bus_103:0" edges="22325257 479083905 758639272 630446800#0 22325258#1 475163615 475163616 475163617 325024345#0 383365017#0 535604972 655065973 463992183#0 740790999#0 655011702#0 655134046#0 528901622#0 174886218#1 174886218#2 174886218#3 543748598#0 74712003#0 826853865#0 617971443#0 74712002#0 638292529 -74553742#0 -661628586 -630180102#1 -383365017#1 448937648#0 22325257" >
        <stop busStop="410475113" duration="20" until="258.0"/> <!-- Serangoon Interchange -->
    </route>
    <route id="pt_bus_60T:0" edges="479169486#0 479169488 176204437 630397573 633268070 473439151#0 473439151#1 826116981 726600900 826116980 473440854 473440852 473440856#0 632474268 74522411 655146644#0 21464260 632486028 585646220#0 770367113 475343499 655147259#0 473440858" >
        <stop busStop="410465918" duration="20" until="226.0"/> <!-- Eunos Station -->
    </route>
    <route id="pt_bus_175:0" edges="634152052 651983305 630439205 634817435 538223044#0 75561429#0 833778547#0 639917665#1 633815634#0 465226134 75141902#0 314507682 647918134 660086364 786076258#0 480428594#0 75058601 445282932#0 633166655 640004158 633166656#0 763955272 633166654 -659863654#1 -19819158 -170968190 -627306042 635733642#0 666582869#0 666582869#1" >
        <stop busStop="410466824" duration="20" until="253.0"/> <!-- Lavender Station Exit B -->
    </route>
    <route id="pt_bus_109:1" edges="711920246 175959504#0 470804414#0 470804417#0 470804419#0 471187527#0 471187526#0 470386842#0 385064936 798188897 635667223#0 537933596" >
        <stop busStop="410468829@6622943" duration="20" until="31.0"/> <!-- Blk 115 -->
    </route>
    <route id="pt_bus_3:0" edges="631887962#2" >
        <stop busStop="1847853709" duration="20" until="50.0"/> <!-- Punggol Temporary Interchange -->
    </route>
    <route id="pt_bus_151:0" edges="464307232 627314928 448937482#0 628480460 696280475 629321296 630120855 464307233#0 464307236#0 629342912 630491562 512918263#0 74549004#1 617971364 74549004#3 201275786#0 349537828 512918260 726039434#0 797231591 475924616 464307237#0 448937481#0 726595429 464307232" >
        <stop busStop="410464928@1149453" duration="20" until="307.0"/> <!-- Hougang Central Interchange -->
    </route>
    <route id="pt_bus_506:1" edges="174886218#0 174886218#1 174886218#2" >
    </route>
    <route id="pt_bus_230:0" edges="464307274 -481679398 533476180#0" >
        <stop busStop="410479727" duration="20" until="33.0"/> <!-- Opposite Toa Payoh Swimming Complex -->
        <stop busStop="410479708@12980591" duration="20" until="269.0"/> <!-- Toa Payoh Interchange -->
    </route>
    <route id="pt_bus_513:1" edges="472648774" >
        <stop busStop="410476781" duration="20" until="37.0"/> <!-- Opposite Temasek Polytechnic East G -->
    </route>
    <route id="pt_bus_857:0" edges="780428114#0 481098362 481099779#0 74587408#0 585630283#0 74587409#0 74587409#2 538223011 22811726#0 779488578 480689016 -481097759#1 -785765407 -666585597#1 481678436 633809145 481097759#0" >
        <stop busStop="410475260" duration="20" until="53.0"/> <!-- Kwong Wai Shiu Hospital -->
    </route>
    <route id="pt_bus_131:0" edges="-463966786 750549353 140743458 635517195 635510099#0 826384274 261641339 671960066 173767578#0 173713396#0 480885317 480885318 74542179#0 639598635 633220054#1 778202758#0 74542170#0 74542170#1 787055120 479299127#0 633554190 22811727#1 633554191 676219471 479302146#0 21932007#0 651958652 74628594 822470286 633145190 633147807 633143449 481102409#0 21815901#0 481102412#0 539844638 829565054#0 481102416 829560362 539844639#0 654982349 654982348 480698846#1 480698846#2 539844637 539844636#0 75120038#0 654880176 699952025 481650999 654995230#0 654995229" >
        <stop busStop="-1573773447" duration="20" until="31.0"/> <!-- Saint Michael's Terminal -->
    </route>
    <route id="pt_bus_50:0" edges="630810315 481885213#0 74690116#0 630843936#0 630871452#0 800266761 93841131#0 369946594#1 369946594#3 528930920#2 543606675 503164319 630871449 464804348#0" >
        <stop busStop="410461836" duration="20" until="146.0"/> <!-- Bishan Interchange -->
    </route>
    <route id="pt_bus_34A:0" edges="631887962#2" >
        <stop busStop="1847853709" duration="20" until="82.0"/> <!-- Punggol Temporary Interchange -->
    </route>
    <route id="pt_bus_232:0" edges="464307259 464307274 464150145#0 644926146#0 658187507#0 645299431#0 74703902#0" >
        <stop busStop="410479708@1154456" duration="20" until="40.0"/> <!-- Toa Payoh Interchange -->
        <stop busStop="410479727" duration="20" until="159.0"/> <!-- Opposite Toa Payoh Swimming Complex -->
    </route>
    <route id="pt_bus_101:0" edges="478162373#0 478162370 75104282#0 631708006 538620030 478162371 537041150#0 478162372#0 538619059 820849451#0 633214727 21338587 538619058 634564739 476728842 476728843 74953870#0 445716791#0 74553749#0 475116737 475116738#0 475116739#0 -633397740#1 -655562457 -655562458 -638466110#1 633268853#0 411579412 652541040 646395457 528901622#0 174886218#1 174886218#2 174886218#3 543748598#0 646395458 617971439#2 617971441#0 -475116740#2 -633395118#1 -22694479#1 617971363#0 22293549#0 22293549#1 22293549#2 655137684 630854648 667699977 448937645#0 448937646#0 74553751#0 479755264 479755263 479755795 464288934 464288931 650857287 630461697#0 655184944 538619060#0 478162368 478162369#0" >
        <stop busStop="410475113" duration="20" until="304.0"/> <!-- Serangoon Interchange -->
    </route>
    <route id="pt_bus_960:0" edges="480529210#0 480529210#1 22932586#0 480677348 173791985#0 173791985#1 396336409#0 396336410#1 633613303#0 786466932 21673088#2 396336423#0 21809828#0 634846719 156566844 480237014#0 630439201#0 75117647#0 630441430#0" >
        <stop busStop="410483661" duration="20" until="221.0"/> <!-- Bugis Station Exit B -->
    </route>
    <route id="pt_bus_15:0" edges="661349060 630431632 754521540 173767891#0 630106492#0 471644806 471644807#0 586995018#0 74614938 471646291#0 173767902#0 652155796#0 445283002 652155794 816815281 512918045#0 174765836 512918038#0 22719328#0 22719328#2 783823671 473173013#0 473173016#0 472116143 649381117 472116142#0 542680705#0 1000505888#0 1180599555 1108000171#0 1108000171#2 1108000170 655189061 176204509 639048067 169742581 169742580 635714801 655679402 655679401 472099086#0 472099086#1 470479207 649442275 617971451#0 174035892 635666480#0 385064937 387269423 470476510#0 470477265 470922335#0 470705749#0 635654055 470386841#0 1167314765#0 1167314764 1167317918 412279261#0 412279261#1 412279261#2 173767967 1167314764 1167317918" >
        <stop busStop="9721975023@1147805" duration="20" until="587.0"/> <!-- Pasir Ris Interchange -->
    </route>
    <route id="pt_bus_68B:0" edges="512918036#0 512918036#1 512918036#2 512918036#3 512918036#4 409422027#0 669874366 669874365 885388066 33764211 652535409#0 512918017 472853514 472853515#0 587000193#0 241192304#0 472116145 464986701#0 652008834 512918068 1180597615#0 462004568#0 462004568#2 749856429 633843740#0 647946817#0 522404178 1108000159 717453269 462004570 633593465 792748821 633593462#0 462004573#0 647948084" >
        <stop busStop="8263470004" duration="20" until="243.0"/> <!-- Blk 602B -->
    </route>
    <route id="pt_bus_63M:0" edges="479169486#0 479169488 176204437 630397573 633268070 473439151#0 473439151#1 826116981 726600900 826116980 473440854 473440852 473440856#0 632474268 74522411 655146644#0 21464260 632486028 585646220#0 770367113 475343499 539642111 479779415 539642108 475345959 475345961#0 539642093#0 634284444 632985875 649632496 1167108141#0" >
        <stop busStop="410465918" duration="20" until="167.0"/> <!-- Eunos Station -->
    </route>
    <route id="pt_bus_21:0" edges="821855049 473247071#0 473247072#0 473247070#0 472808325 74614937#0 22719328#0 22719328#2 783823671 473173013#0 473173016#0 472116143 649381117 472116142#0 542680705#0 1000505888#0 1180599555 1108000171#0 1108000171#2 1108000170 655189061 176204509 639048067 169742581 169742580 635714801 655679402 655679401 472099086#0 472099086#1 470479207 649442275 617971451#0 174035892 635666480#0 385064937 387269423 470476510#0 470477265 470922335#0 470705749#0 635654055 470386841#0 1167314765#0 1167314764 1167317918 412279261#0 412279261#1 412279261#2 173767967 -1167314765#1 173767806#0 655217907#0 470787509#1 470787509#4" >
        <stop busStop="9721975023@1147805" duration="20" until="528.0"/> <!-- Pasir Ris Interchange -->
    </route>
    <route id="pt_bus_68A:0" edges="652354641#0 792748820 792748819#0 792748819#1 652354865#0 652354865#2 533483216 1241672439 652357572 652357566 1108000161 533483223 652357550 647946815#0 533483217#0 635659316 749856426 749856425#0 749856423 472112651#0 587002321#0 241192306 749844991 472853520#0 587000180#0 241192307 472853522#0 472853523#0 472853524 512918040#0 409422028#0" >
        <stop busStop="8263470002" duration="20" until="99.0"/> <!-- Opposite Blk 614 -->
        <stop busStop="8263470003" duration="20" until="166.0"/> <!-- Opposite Blk 609D -->
        <stop busStop="6730459767" duration="20" until="242.0"/> <!-- Blk 619A -->
    </route>
    <route id="pt_bus_325:0" edges="475364578#0 475919821#0 631793083#0 631793083#1 630830009 630827832 629347659 464230152#0 629342912 630491562 512918263#0 74549004#1 617971364 74549004#3 201275786#0 349537828 512918260 726039434#0 797231591 475924616 464307237#0 464307234#0 629359521" >
        <stop busStop="410464928@1149453" duration="20" until="204.0"/> <!-- Hougang Central Interchange -->
    </route>