<?xml version="1.0" encoding="UTF-8"?>

<!-- generated on 2024-01-25 21:30:00 by Eclipse SUMO duarouter Version 1.14.1
<configuration xmlns:xsi="http://www.w3.org/2001/XMLSchema-instance" xsi:noNamespaceSchemaLocation="http://sumo.dlr.de/xsd/duarouterConfiguration.xsd">

    <input>
        <net-file value="singapore.net.xml"/>
        <route-files value="random.trips.xml"/>
    </input>

    <output>
        <output-file value="random.rou.xml"/>
    </output>

    <report>
        <ignore-errors value="true"/>
    </report>

</configuration>
-->

<routes xmlns:xsi="http://www.w3.org/2001/XMLSchema-instance" xsi:noNamespaceSchemaLocation="http://sumo.dlr.de/xsd/routes_file.xsd">
    <vehicle id="1" depart="1.00">
        <routeDistribution last="0">
            <route cost="718.67" probability="1.00000000" edges="474929433 539379658 476381191 74769762 630866045 631722832 305935886 74553749 475116737 475116738 475116739 478881770 448937598 633397743 824411067 479080151 479083903 448937581 22325259 383365020 632203646 634184990 634794777 479079789 655137145 463995441 22293549 655137684 630854648 667699977 33264691#0 633809926 445716790 74671097 445716788#0 538260866 633299924 474929430 538761283#0 538761282 631844130 649405237 539638976 476753248#0 75516211 630855998 500368905 661665982 795505748 795505747 632497914 173961732 630419696#0 632512661 639549066 655655597 443122391 74553771 639916002 655658863 74746296 655144778 477574135 655504834 636737164 74746295 173779734 447712957 476429330 477958806 587048092 476431846 74675111 792764584 473439150 74553776 826116981 473440854 473440856 632474268 655146644#0 74687493 585646221#0 23816952 75511727 632562097#0 655145244 666806812 465467899"/>
        </routeDistribution>
    </vehicle>
    <vehicle id="5" depart="5.00">
        <routeDistribution last="0">
            <route cost="871.44" probability="1.00000000" edges="465123975 661340996 661340995 654766089 391007728 45065755 651144349 194761557 22698325 476752807 476752808 74729031 467689356 74518112 536913705 651916279 536913699 536913690 536913684 536913683 464289006 536913673 536913672 708802890 464981417#0 74680083 475134293 172065637#0 74914974 22291137#0 661670905 747402010 585646214 634806490 465461960#0 465461961 585646212#0 476112155 820408640 476112157 33793689 476112159 476112161#0 587050475#0 476374559#0 639549065 649924884 476374560 795505751 630419697 22291132 476374561#0 33264343 655041207 476377509 33264605 633245786 628515049 634102357 74553758 539638975 358645124 476380447 476380451 474929433 539379658 476381191 74769762 630866045 631722832 305935886 74553749 475116737 475116738 475116739 478881770 448937598 633397743 824411067 479080151 479083903 448937581 448937648 479083905 758639272 174765849 478126342 478126343 478930899 633146417 655041844 537579061 633804506 173792008 445283015 475171828 475171829 649626423 533055058 533055059 630417422 475171826 628485342 447713253#0 445716684#0 628511633 651180186 512918198 512918195#0 650919577 794631148 512918180 174886239 512918181#0 476716878 175959440 476440462 445716678#0 623353016 623353013 383281888 624291909 537979490"/>
        </routeDistribution>
    </vehicle>
    <vehicle id="7" depart="7.00">
        <routeDistribution last="0">
            <route cost="454.76" probability="1.00000000" edges="630160531 479124342 630163199 74902653 532977598 661628136 479754537 22325259 383365020 632203646 634184990 634794777 479079789 655137145 463995441 22293549 655137684 630854648 667699977 33264691#0 633809926 445716790 74671097 445716788#0 538260866 633299924 474929430 538761283#0 538761282 631844130 649405237 539638976 476753248#0 75516211 630855998 500368905 661665982 795505748 795505747 632497914 173961732 630419696#0 632512661 639549066 655655597 445282960 74484458 587050477#0 654859628 654859626 632569391 585706001 632561159 655143897 585646211#0 585646209#0"/>
        </routeDistribution>
    </vehicle>
    <vehicle id="8" depart="8.00">
        <routeDistribution last="0">
            <route cost="1126.90" probability="1.00000000" edges="465461960#0 465461961 585646212#0 476112155 820408640 476112157 33793689 476112159 476112161#0 587050475#0 476374559#0 639549065 649924884 476374560 795505751 630419697 22291132 476374561#0 33264343 655041207 476377509 33264605 633245786 628515049 634102357 74553758 539638975 358645124 476380447 476380451 474929433 539379658 476381191 74769762 630866045 631722832 305935886 74553749 475116737 475116738 475116739 478881770 448937598 633397743 824411067 479080151 479083903 448937581 22325259 383365020 632203646 634184990 634794777 479079789 655137145 463995441 22293549 655137684 630854648 667699977 33264691#0 633809926 445716790 74671097 445716788#0 538260866 633299924 474929430 538761283#0 538761282 631844130 649405237 539638976 476753248#0 75516211 630855998 500368905 661665982 795505748 795505747 632497914 173961732 630419696#0 632512661 639549066 655655597 443122391 74553771 639916002 655658863 74746296 655144778 477574135 655504834 636737164 74746295 173779734 447712957 476429330 477958806 587048092 476431846 74675111 792764584 473439150 74553776 826116981 473440854 473440856 632474268 655146644#0 74687493 585646221#0 23816952 75511727 632562097#0 655145244 666806812 465467899 770367113 475343499 473440857 655147259 479169486 479169488 473439152 223671420 632482225 792755656 477711619 21463643 636736093 306116898 636736606 22674809 477557468 74746294 477557471 632953499 632953495 477557470 633788296 74746298 640008546 602479029#0"/>
        </routeDistribution>
    </vehicle>
    <vehicle id="9" depart="9.00">
        <routeDistribution last="0">
            <route cost="613.21" probability="1.00000000" edges="655144778 477574135 655504834 636737164 74746295 173779734 447712957 476429330 477958806 587048092 476431846 74675111 792764584 473439150 74553776 826116981 473440854 473440856 632474268 655146644#0 74687493 585646221#0 23816952 75511727 632562097#0 655145244 666806812 465467899 770367113 475343499 473440857 655147259 479169486 479169488 473439152 223671420 632482225 792755656 477711619 21463643 636736093 306116898 636736606 22674809 477557468 74746294 477557471 632953499 632953495 477557470 633788296 74746298 640008546 602479029#0 587050477#0 654859628 654859626 632569391 585706001 632561159 655143897 585646211#0 585646209#0 661670601 234371419 74553768 464289009 652012496 585703842#0 -22810638 746927170 474676253 478313239 536913687 -747299409"/>
        </routeDistribution>
    </vehicle>
    <vehicle id="10" depart="10.00">
        <routeDistribution last="0">
            <route cost="634.35" probability="1.00000000" edges="655143897 585646211#0 585646209#0 661670601 234371419 74553768 464289009 652012496 585703842#0 708802890 464981417#0 74680083 475134293 172065637#0 74914974 22291137#0 661670905 747402010 585646214 634806490 465461960#0 465461961 585646212#0 476112155 820408640 476112157 33793689 476112159 476112161#0 587050475#0 476374559#0 639549065 649924884 476374560 795505751 630419697 22291132 476374561#0 33264343 655041207 476377509 33264605 633245786 628515049 634102357 74553758 539638975 358645124 476380447 476380451 474929433 539379658 476381191 74769762 630866045 631722832 305935886 74553749 475116737 475116738 475116739 478881770 448937598 633397743 824411067 479080151 479083903 305935878 535604972 652292208 532990228 532977599 174765783 633194212 633194211 174552467 174552465 628222001 630159972 628201210 594262532#0 174402279 22694299 633219124#0 633149548"/>
        </routeDistribution>
    </vehicle>
    <vehicle id="12" depart="12.00">
        <routeDistribution last="0">
            <route cost="927.33" probability="1.00000000" edges="75516211 630855998 500368905 661665982 795505748 795505747 632497914 173961732 630419696#0 632512661 639549066 655655597 445282960 74484458 587050475#0 476374559#0 639549065 649924884 476374560 795505751 630419697 22291132 476374561#0 33264343 655041207 476377509 33264605 633245786 628515049 634102357 74553758 539638975 358645124 476380447 476380451 474929433 539379658 476381191 74769762 630866045 631722832 305935886 74553749 475116737 475116738 475116739 478881770 448937598 633397743 824411067 479080151 479083903 448937581 448937648 479083905 758639272 174765849 478126342 478126343 478930899 633146417 655041844 537579061 633804506 173792008 445283015 475171828 475171829 649626423 533055058 533055059 630417422 475171826 628485342 447713253#0 445716684#0 628511633 651180186 512918198 512918195#0 650919577 794631148 512918180 174886239 512918181#0 476716878 175959440 476440462 445716678#0 623353016 623353013 383281888 624291909 537979490 624291908#0 581565348 624291888#0 626538765 623713564 623713566 536039211 74549015#0 627937588 445716732 174281625 476705430 445716692#0 445716691 74962078 445716747#0 627686931 174886203 476689629 649386685 445716745 445716751 756108190 476692298 756107569 476692295 74957634 799571432 476692302 391007733#0 717440786 476693038 582412289#0 582412286#0 717446183 476389378 445716719 445716717 33194100 476389380 476389381"/>
        </routeDistribution>
    </vehicle>
    <vehicle id="15" depart="15.00">
        <routeDistribution last="0">
            <route cost="690.12" probability="1.00000000" edges="655143897 585646211#0 585646209#0 661670601 234371419 74553768 464289009 652012496 585703842#0 708802890 464981417#0 74680083 475134293 172065637#0 74914974 22291137#0 661670905 747402010 585646214 634806490 465461960#0 465461961 585646212#0 476112155 820408640 476112157 33793689 476112159 476112161#0 587050475#0 476374559#0 639549065 649924884 476374560 795505751 630419697 22291132 476374561#0 33264343 655041207 476377509 33264605 633245786 628515049 634102357 74553758 539638975 358645124 476380447 476380451 474929433 539379658 476381191 74769762 630866045 631722832 305935886 74553749 475116737 475116738 475116739 478881770 448937598 633397743 824411067 479080151 479083903 305935878 535604972 652292208 532990228 532977599 174765783 633194212 633194211 174552467 174552465 628222001 630159972 628201210 594262532#0 174402279 22694299 633219124#0 633149548 22650763 634477657"/>
        </routeDistribution>
    </vehicle>
    <vehicle id="17" depart="17.00">
        <routeDistribution last="0">
            <route cost="918.52" probability="1.00000000" edges="476705431 718229611 445716694 627983391 627937587 22652564 623713563#0 479337786 623715810#0 624291892 624291891#0 581565350 537979489#0 623353012 383281870 22651486 528461110 632378379#0 479747060 630097526 445716682 445716683 476703993 476703994 628706178 512918178#0 75070576 512918179 794628388 651065194 512918192#0 512918201#0 652009599 628501871 445716686 74668469 631742210 475156716 475156717 448937650 533055054 1122289596 74869296 475157992 34905413 475158000 475158907 633197069 475159368 475159371 539671030 175959568 630829769 475163615 475163616 475163617 325024345 22325259 383365020 632203646 634184990 634794777 479079789 655137145 463995441 22293549 655137684 630854648 667699977 33264691#0 633809926 445716790 74671097 445716788#0 538260866 633299924 474929430 538761283#0 538761282 631844130 649405237 539638976 476753248#0 75516211 630855998 500368905 661665982 795505748 795505747 632497914 173961732 630419696#0 632512661 639549066 655655597 443122391 74553771 639916002 655658863 74746296 655144778 477574135 655504834 636737164 74746295 173779734 447712957 476429330 477958806 587048092 476431846 74675111 792764584 473439150 74553776 826116981 473440854 473440856 632474268 655146644#0 74687493 585646221#0"/>
        </routeDistribution>
    </vehicle>
    <vehicle id="18" depart="18.00">
        <routeDistribution last="0">
            <route cost="995.74" probability="1.00000000" edges="661351279 131891597 131891598 649078302#0 74518780 761157094 74527426 585646225#0 22698755 585646226#0 22698333 646693374#0 585646223#0 470118588 465123975 661340996 661340995 654766089 391007728 45065755 651144349 194761557 22698325 476752807 476752808 74729031 467689356 74518112 536913705 651916279 536913699 536913690 536913684 536913683 464289006 536913673 536913672 708802890 464981417#0 74680083 475134293 172065637#0 74914974 22291137#0 661670905 747402010 585646214 634806490 465461960#0 465461961 585646212#0 476112155 820408640 476112157 33793689 476112159 476112161#0 587050475#0 476374559#0 639549065 649924884 476374560 795505751 630419697 22291132 476374561#0 33264343 655041207 476377509 33264605 633245786 628515049 634102357 74553758 539638975 358645124 476380447 476380451 474929433 539379658 476381191 74769762 630866045 631722832 305935886 74553749 475116737 475116738 475116739 478881770 448937598 633397743 824411067 479080151 479083903 448937581 448937648 479083905 758639272 174765849 478126342 478126343 478930899 633146417 655041844 537579061 633804506 173792008 445283015 475171828 475171829 649626423 533055058 533055059 630417422 475171826 628485342 447713253#0 445716684#0 628511633 651180186 512918198 512918195#0 650919577 794631148 512918180 174886239 512918181#0 476716878 175959440 476440462 445716678#0 623353016 623353013 383281888 624291909"/>
        </routeDistribution>
    </vehicle>
    <vehicle id="19" depart="19.00">
        <routeDistribution last="0">
            <route cost="1214.22" probability="1.00000000" edges="717470515 476708349 476708350 445716748 718229612 476689637 476705431 718229611 445716694 627983391 627937587 22652564 623713563#0 479337786 623715810#0 624291892 624291891#0 581565350 537979489#0 623353012 383281870 22651486 528461110 632378379#0 479747060 630097526 445716682 445716683 476703993 476703994 628706178 512918178#0 75070576 512918179 794628388 651065194 512918192#0 512918201#0 652009599 628501871 445716686 74668469 631742210 475156716 475156717 448937650 533055054 1122289596 74869296 475157992 34905413 475158000 475158907 633197069 475159368 475159371 539671030 175959568 630829769 475163615 475163616 475163617 325024345 22325259 383365020 632203646 634184990 634794777 479079789 655137145 463995441 22293549 655137684 630854648 667699977 33264691#0 633809926 445716790 74671097 445716788#0 538260866 633299924 474929430 538761283#0 538761282 631844130 649405237 539638976 476753248#0 75516211 630855998 500368905 661665982 795505748 795505747 632497914 173961732 630419696#0 632512661 639549066 655655597 445282960 74484458 587050477#0 654859628 654859626 632569391 585706001 632561159 655143897 585646211#0 585646209#0 661670601 234371419 74553768 464289009 652012496 585703842#0 -22810638 746927170 474676253 478313239 536913687 -747299409 536913703 747065113 536913696 655653617 45065636 641071354 652572204 486025333 535665919 535665920 747882605 617923190 22698361 673494267 816753391 467731257#0 649368017 74685970#0 474427034 673460196 474427035 630414222 22698756 22698751#0 761157096 174023709 474428337 74518787 538754961 633826997 474210631 474428340 464288956 74527435 474431399 474446520 474446528 474446530 722315777 538417614 474446533 474446536 474446538 474471903 473393255 585984921 585984927"/>
        </routeDistribution>
    </vehicle>
    <vehicle id="20" depart="20.00">
        <routeDistribution last="0">
            <route cost="301.08" probability="1.00000000" edges="633197069 475159368 475159371 539671030 175959568 630829769 475163615 475163616 475163617 325024345 448937648 479083905 758639272 174765849 478126342 478126343 478930899 633146417 655041844 537579061 633804506 173792008 445283015 475171828 475171829 649626423 533055058 533055059 630417422 475171826 628485342 447713253#0 445716684#0 628511633 651180186 512918198 512918195#0 650919577 794631148 512918180 174886239"/>
        </routeDistribution>
    </vehicle>
    <vehicle id="22" depart="22.00">
        <routeDistribution last="0">
            <route cost="1063.00" probability="1.00000000" edges="22698333 646693374#0 585646223#0 470118588 465123975 661340996 661340995 654766089 391007728 45065755 651144349 194761557 22698325 476752807 476752808 74729031 467689356 74518112 536913705 651916279 536913699 536913690 536913684 536913683 464289006 536913673 536913672 708802890 464981417#0 74680083 475134293 172065637#0 74914974 22291137#0 661670905 747402010 585646214 634806490 465461960#0 465461961 585646212#0 476112155 820408640 476112157 33793689 476112159 476112161#0 587050475#0 476374559#0 639549065 649924884 476374560 795505751 630419697 22291132 476374561#0 33264343 655041207 476377509 33264605 633245786 628515049 634102357 74553758 539638975 358645124 476380447 476380451 474929433 539379658 476381191 74769762 630866045 631722832 305935886 74553749 475116737 475116738 475116739 478881770 448937598 633397743 824411067 479080151 479083903 448937581 22325259 383365020 632203646 634184990 634794777 479079789 655137145 463995441 22293549 655137684 630854648 667699977 33264691#0 633809926 445716790 74671097 445716788#0 538260866 633299924 474929430 538761283#0 538761282 631844130 649405237 539638976 476753248#0 75516211 630855998 500368905 661665982 795505748 795505747 632497914 173961732 630419696#0 632512661 639549066 655655597 443122391 74553771 639916002 655658863 74746296 655144778 477574135 655504834 636737164 74746295 173779734 447712957 476429330 477958806 587048092 476431846 74675111 792764584 473439150"/>
        </routeDistribution>
    </vehicle>
    <vehicle id="23" depart="23.00">
        <routeDistribution last="0">
            <route cost="774.55" probability="1.00000000" edges="284167586 478162426 22699682 538417615#0 633800167 22698750 726602325 174281633 585985522#0 661351281 744580202 74527434 661351279 131891597 131891598 649078302#0 74518780 761157094 74527426 585646225#0 22698755 585646226#0 22698333 646693374#0 585646223#0 470118588 465123975 661340996 661340995 654766089 391007728 45065755 651144349 194761557 22698325 476752807 476752808 74729031 467689356 74518112 536913705 651916279 536913699 536913690 536913684 536913683 464289006 536913673 536913672 708802890 464981417#0 74680083 475134293 172065637#0 74914974 22291137#0 661670905 747402010 585646214 634806490 465461960#0 465461961 585646212#0 476112155 820408640 476112157 33793689 476112159 476112161#0 587050475#0 476374559#0 639549065 649924884 476374560 795505751 630419697 22291132 476374561#0 33264343 655041207 476377509 33264605 633245786 628515049 634102357 74553758 539638975 358645124 476380447 476380451 474929433 539379658 476381191 74769762 630866045 631722832 305935886 74553749 475116737 475116738"/>
        </routeDistribution>
    </vehicle>
    <vehicle id="31" depart="31.00">
        <routeDistribution last="0">
            <route cost="899.00" probability="1.00000000" edges="585646225#0 22698755 585646226#0 22698333 646693374#0 585646223#0 470118588 465123975 661340996 661340995 654766089 391007728 45065755 651144349 194761557 22698325 476752807 476752808 74729031 467689356 74518112 536913705 651916279 536913699 536913690 536913684 536913683 464289006 536913673 536913672 708802890 464981417#0 74680083 475134293 172065637#0 74914974 22291137#0 661670905 747402010 585646214 634806490 465461960#0 465461961 585646212#0 476112155 820408640 476112157 33793689 476112159 476112161#0 587050475#0 476374559#0 639549065 649924884 476374560 795505751 630419697 22291132 476374561#0 33264343 655041207 476377509 33264605 633245786 628515049 634102357 74553758 539638975 358645124 476380447 476380451 474929433 539379658 476381191 74769762 630866045 631722832 305935886 74553749 475116737 475116738 475116739 478881770 448937598 633397743 824411067 479080151 479083903 448937581 22325259 383365020 632203646 634184990 634794777 479079789 655137145 463995441 22293549 655137684 630854648 667699977 33264691#0 633809926 445716790 74671097 445716788#0 538260866 633299924 474929430 538761283#0 538761282 631844130 649405237 539638976 476753248#0 75516211 630855998 500368905 661665982 795505748 795505747 632497914 173961732 630419696#0 632512661"/>
        </routeDistribution>
    </vehicle>
    <vehicle id="32" depart="32.00">
        <routeDistribution last="0">
            <route cost="713.38" probability="1.00000000" edges="667699977 33264691#0 633809926 445716790 74671097 445716788#0 538260866 633299924 474929430 538761283#0 538761282 631844130 649405237 539638976 476753248#0 75516211 630855998 500368905 661665982 795505748 795505747 632497914 173961732 630419696#0 632512661 639549066 655655597 445282960 74484458 587050475#0 476374559#0 639549065 649924884 476374560 795505751 630419697 22291132 476374561#0 33264343 655041207 476377509 33264605 633245786 628515049 634102357 74553758 539638975 358645124 476380447 476380451 474929433 539379658 476381191 74769762 630866045 631722832 305935886 74553749 475116737 475116738 475116739 478881770 448937598 633397743 824411067 479080151 479083903 448937581 448937648 479083905 758639272 174765849 478126342 478126343 478930899 633146417 655041844 537579061 633804506 173792008 445283015 475171828 475171829 649626423 533055058 533055059 630417422 475171826 628485342 447713253#0 445716684#0 628511633 651180186"/>
        </routeDistribution>
    </vehicle>
    <vehicle id="34" depart="34.00">
        <routeDistribution last="0">
            <route cost="1100.37" probability="1.00000000" edges="476112159 476112161#0 587050475#0 476374559#0 639549065 649924884 476374560 795505751 630419697 22291132 476374561#0 33264343 655041207 476377509 33264605 633245786 628515049 634102357 74553758 539638975 358645124 476380447 476380451 474929433 539379658 476381191 74769762 630866045 631722832 305935886 74553749 475116737 475116738 475116739 478881770 448937598 633397743 824411067 479080151 479083903 448937581 22325259 383365020 632203646 634184990 634794777 479079789 655137145 463995441 22293549 655137684 630854648 667699977 33264691#0 633809926 445716790 74671097 445716788#0 538260866 633299924 474929430 538761283#0 538761282 631844130 649405237 539638976 476753248#0 75516211 630855998 500368905 661665982 795505748 795505747 632497914 173961732 630419696#0 632512661 639549066 655655597 445282960 74484458 587050477#0 654859628 654859626 632569391 585706001 632561159 655143897 585646211#0 585646209#0 661670601 234371419 74553768 464289009 652012496 585703842#0 -22810638 746927170 474676253 478313239 536913687 -747299409 536913703 747065113 536913696 655653617 45065636 641071354 652572204 486025333 535665919 535665920 747882605 617923190 22698361 673494267 816753391 467731257#0 649368017 74685970#0 474427034 673460196 474427035 630414222 22698756 22698751#0 761157096 174023709 474428337 74518787 538754961 633826997 474210631 474428340 464288956 74527435 474431399 474446520 474446528 474446530 722315777 538417614 474446533 474446536 474446538"/>
        </routeDistribution>
    </vehicle>
    <vehicle id="36" depart="36.00">
        <routeDistribution last="0">
            <route cost="1034.56" probability="1.00000000" edges="734884726 476395130 476395125 582412262 476395118 655182285 445716721 717446182 823685682#0 582412290#0 190451325 620745573 717446180 391007732#0 32776560 349416402 476708352 476692300 74957629 717470516 717470515 476708349 476708350 445716748 718229612 476689637 476705431 718229611 445716694 627983391 627937587 22652564 623713563#0 479337786 623715810#0 624291892 624291891#0 581565350 537979489#0 623353012 383281870 22651486 528461110 632378379#0 479747060 630097526 445716682 445716683 476703993 476703994 628706178 512918178#0 75070576 512918179 794628388 651065194 512918192#0 512918201#0 652009599 628501871 445716686 74668469 631742210 475156716 475156717 448937650 533055054 1122289596 74869296 475157992 34905413 475158000 475158907 633197069 475159368 475159371 539671030 175959568 630829769 475163615 475163616 475163617 325024345 22325259 383365020 632203646 634184990 634794777 479079789 655137145 463995441 22293549 655137684 630854648 667699977 33264691#0 633809926 445716790 74671097 445716788#0 538260866 633299924 474929430 538761283#0 538761282 631844130 649405237 539638976 476753248#0 75516211 630855998 500368905 661665982 795505748 795505747 632497914 173961732 630419696#0 632512661 639549066 655655597 445282960 74484458 587050477#0 654859628 654859626 632569391 585706001 632561159 655143897 585646211#0 585646209#0 661670601 234371419 74553768 464289009 652012496 585703842#0 708802890 464981417#0 74680083 475134293 172065637#0 74914974 22291137#0 661670905 747402010 585646214 634806490 465461960#0 465461961 585646212#0 476112155 820408640 476112157 33793689 476112159"/>
        </routeDistribution>
    </vehicle>
    <vehicle id="40" depart="40.00">
        <routeDistribution last="0">
            <route cost="392.94" probability="1.00000000" edges="585703842#0 -22810638 746927170 474676253 478313239 536913687 -747299409 536913703 747065113 536913696 655653617 45065636 641071354 652572204 486025333 535665919 535665920 747882605 617923190 22698361 673494267 816753391 467731257#0 649368017 74685970#0 474427034 673460196 474427035 630414222 22698756 22698751#0 761157096 174023709 474428337 74518787 538754961 633826997 474210631 474428340 464288956 74527435 474431399 474446520 474446528 474446530 722315777 538417614 474446533"/>
        </routeDistribution>
    </vehicle>
    <vehicle id="41" depart="41.00">
        <routeDistribution last="0">
            <route cost="126.34" probability="1.00000000" edges="587050475#0 476374559#0 639549065 649924884 476374560 795505751 630419697 22291132 476374561#0 33264343 655041207 476377509 33264605 633245786 628515049 634102357 74553758"/>
        </routeDistribution>
    </vehicle>
    <vehicle id="42" depart="42.00">
        <routeDistribution last="0">
            <route cost="613.90" probability="1.00000000" edges="477574135 655504834 636737164 74746295 173779734 447712957 476429330 477958806 587048092 476431846 74675111 792764584 473439150 74553776 826116981 473440854 473440856 632474268 655146644#0 74687493 585646221#0 23816952 75511727 632562097#0 655145244 666806812 465467899 770367113 475343499 473440857 655147259 479169486 479169488 473439152 223671420 632482225 792755656 477711619 21463643 636736093 306116898 636736606 22674809 477557468 74746294 477557471 632953499 632953495 477557470 633788296 74746298 640008546 602479029#0 587050477#0 654859628 654859626 632569391 585706001 632561159 655143897 585646211#0 585646209#0 661670601 234371419 74553768 464289009 652012496 585703842#0 708802890 464981417#0 74680083 475134293 172065637#0 74914974 22291137#0 661670905 747402010 585646214 634806490 465461960#0"/>
        </routeDistribution>
    </vehicle>
    <vehicle id="43" depart="43.00">
        <routeDistribution last="0">
            <route cost="116.14" probability="1.00000000" edges="824411067 479080151 479083903 448937581 22325259 383365020 632203646 634184990 634794777 479079789 655137145 463995441 22293549 655137684 630854648 667699977 33264691#0 633809926 445716790 74671097 445716788#0 538260866"/>
        </routeDistribution>
    </vehicle>
    <vehicle id="44" depart="44.00">
        <routeDistribution last="0">
            <route cost="1039.92" probability="1.00000000" edges="22699682 538417615#0 633800167 22698750 726602325 174281633 585985522#0 661351281 744580202 74527434 661351279 131891597 131891598 649078302#0 74518780 761157094 74527426 585646225#0 22698755 585646226#0 22698333 646693374#0 585646223#0 470118588 465123975 661340996 661340995 654766089 391007728 45065755 651144349 194761557 22698325 476752807 476752808 74729031 467689356 74518112 536913705 651916279 536913699 536913690 536913684 536913683 464289006 536913673 536913672 708802890 464981417#0 74680083 475134293 172065637#0 74914974 22291137#0 661670905 747402010 585646214 634806490 465461960#0 465461961 585646212#0 476112155 820408640 476112157 33793689 476112159 476112161#0 587050475#0 476374559#0 639549065 649924884 476374560 795505751 630419697 22291132 476374561#0 33264343 655041207 476377509 33264605 633245786 628515049 634102357 74553758 539638975 358645124 476380447 476380451 474929433 539379658 476381191 74769762 630866045 631722832 305935886 74553749 475116737 475116738 475116739 478881770 448937598 633397743 824411067 479080151 479083903 448937581 448937648 479083905 758639272 174765849 478126342 478126343 478930899 633146417 655041844 537579061 633804506 173792008 445283015 475171828 475171829 649626423 533055058 533055059 630417422 475171826 628485342 447713253#0 445716684#0 628511633 651180186 512918198 512918195#0 650919577 794631148 512918180 174886239 512918181#0 476716878 175959440"/>
        </routeDistribution>
    </vehicle>
    <vehicle id="45" depart="45.00">
        <routeDistribution last="0">
            <route cost="797.83" probability="1.00000000" edges="32776560 349416402 476708352 476692300 74957629 717470516 717470515 476708349 476708350 445716748 718229612 476689637 476705431 718229611 445716694 627983391 627937587 22652564 623713563#0 479337786 623715810#0 624291892 624291891#0 581565350 537979489#0 623353012 383281870 22651486 528461110 632378379#0 479747060 630097526 445716682 445716683 476703993 476703994 628706178 512918178#0 75070576 512918179 794628388 651065194 512918192#0 512918201#0 652009599 628501871 445716686 74668469 631742210 475156716 475156717 448937650 533055054 1122289596 74869296 475157992 34905413 475158000 475158907 633197069 475159368 475159371 539671030 175959568 630829769 475163615 475163616 475163617 325024345 448937648 479083905 758639272 174765849 478126342 478126343 478930899 633146417 655041844 537579061 633804506 173792008 445283015 475171828 475171829 649626423 533055058 533055059 630417422 475171826 628485342 447713253#0 445716684#0 628511633 651180186 512918198 512918195#0 650919577 794631148 512918180 174886239 512918181#0 476716878 175959440 476440462 445716678#0 623353016 623353013 383281888 624291909 537979490 624291908#0 581565348 624291888#0 626538765 623713564 623713566 536039211 74549015#0 627937588"/>
        </routeDistribution>
    </vehicle>