<?xml version="1.0" encoding="UTF-8"?>

<!-- generated on 2024-01-28 19:33:06 by Eclipse SUMO netedit Version 1.14.1
<configuration xmlns:xsi="http://www.w3.org/2001/XMLSchema-instance" xsi:noNamespaceSchemaLocation="http://sumo.dlr.de/xsd/netconvertConfiguration.xsd">

    <input>
        <sumo-net-file value="C:\Users\Joseph\Masters-Dissertation\singapore\singapore.net.xml"/>
    </input>

    <output>
        <output-file value="C:\Users\Joseph\Masters-Dissertation\singapore\singapore.net.xml"/>
    </output>

    <processing>
        <geometry.min-radius.fix.railways value="false"/>
        <geometry.max-grade.fix value="false"/>
        <offset.disable-normalization value="true"/>
        <lefthand value="false"/>
    </processing>

    <junctions>
        <no-turnarounds value="true"/>
        <junctions.corner-detail value="5"/>
        <junctions.limit-turn-speed value="5.5"/>
        <rectangular-lane-cut value="false"/>
    </junctions>

    <pedestrian>
        <walkingareas value="false"/>
    </pedestrian>

</configuration>
-->

<net version="1.9" junctionCornerDetail="5" limitTurnSpeed="5.50" xmlns:xsi="http://www.w3.org/2001/XMLSchema-instance" xsi:noNamespaceSchemaLocation="http://sumo.dlr.de/xsd/net_file.xsd">

    <location netOffset="-371844.51,-143723.40" convBoundary="0.00,0.00,11673.51,11765.20" origBoundary="103.848050,1.300068,103.952989,1.406569" projParameter="+proj=utm +zone=48 +ellps=WGS84 +datum=WGS84 +units=m +no_defs"/>

    <type id="highway.bridleway" priority="1" numLanes="1" speed="2.78" allow="pedestrian" oneway="1" width="2.00"/>
    <type id="highway.bus_guideway" priority="1" numLanes="1" speed="27.78" allow="bus" oneway="1"/>
    <type id="highway.cycleway" priority="1" numLanes="1" speed="5.56" allow="bicycle" oneway="0" width="1.00"/>
    <type id="highway.footway" priority="1" numLanes="1" speed="2.78" allow="pedestrian" oneway="1" width="2.00"/>
    <type id="highway.ford" priority="1" numLanes="1" speed="2.78" allow="army" oneway="0"/>
    <type id="highway.living_street" priority="2" numLanes="1" speed="2.78" disallow="tram rail_urban rail rail_electric rail_fast ship" oneway="0"/>
    <type id="highway.motorway" priority="14" numLanes="2" speed="39.44" allow="private emergency authority army vip passenger hov taxi bus coach delivery truck trailer motorcycle evehicle custom1 custom2" oneway="1"/>
    <type id="highway.motorway_link" priority="9" numLanes="1" speed="22.22" allow="private emergency authority army vip passenger hov taxi bus coach delivery truck trailer motorcycle evehicle custom1 custom2" oneway="1"/>
    <type id="highway.path" priority="1" numLanes="1" speed="5.56" allow="pedestrian bicycle" oneway="0" width="2.00"/>
    <type id="highway.pedestrian" priority="1" numLanes="1" speed="2.78" allow="pedestrian" oneway="1" width="2.00"/>
    <type id="highway.primary" priority="12" numLanes="2" speed="27.78" disallow="tram rail_urban rail rail_electric rail_fast ship" oneway="0"/>
    <type id="highway.primary_link" priority="7" numLanes="1" speed="22.22" disallow="tram rail_urban rail rail_electric rail_fast ship" oneway="0"/>
    <type id="highway.raceway" priority="15" numLanes="2" speed="83.33" allow="vip" oneway="0"/>
    <type id="highway.residential" priority="3" numLanes="1" speed="13.89" disallow="tram rail_urban rail rail_electric rail_fast ship" oneway="0"/>
    <type id="highway.secondary" priority="11" numLanes="1" speed="27.78" disallow="tram rail_urban rail rail_electric rail_fast ship" oneway="0"/>
    <type id="highway.secondary_link" priority="6" numLanes="1" speed="22.22" disallow="tram rail_urban rail rail_electric rail_fast ship" oneway="0"/>
    <type id="highway.service" priority="1" numLanes="1" speed="5.56" allow="pedestrian delivery bicycle" oneway="0"/>
    <type id="highway.stairs" priority="1" numLanes="1" speed="1.39" allow="pedestrian" oneway="1" width="2.00"/>
    <type id="highway.step" priority="1" numLanes="1" speed="1.39" allow="pedestrian" oneway="1" width="2.00"/>
    <type id="highway.steps" priority="1" numLanes="1" speed="1.39" allow="pedestrian" oneway="1" width="2.00"/>
    <type id="highway.tertiary" priority="10" numLanes="1" speed="22.22" disallow="tram rail_urban rail rail_electric rail_fast ship" oneway="0"/>
    <type id="highway.tertiary_link" priority="5" numLanes="1" speed="22.22" disallow="tram rail_urban rail rail_electric rail_fast ship" oneway="0"/>
    <type id="highway.track" priority="1" numLanes="1" speed="5.56" allow="pedestrian motorcycle moped bicycle" oneway="0"/>
    <type id="highway.trunk" priority="13" numLanes="2" speed="27.78" disallow="bicycle tram rail_urban rail rail_electric rail_fast ship" oneway="0"/>
    <type id="highway.trunk_link" priority="8" numLanes="1" speed="22.22" disallow="bicycle tram rail_urban rail rail_electric rail_fast ship" oneway="0"/>
    <type id="highway.unclassified" priority="4" numLanes="1" speed="13.89" disallow="tram rail_urban rail rail_electric rail_fast ship" oneway="0"/>
    <type id="highway.unsurfaced" priority="1" numLanes="1" speed="8.33" disallow="tram rail_urban rail rail_electric rail_fast ship" oneway="0"/>
    <type id="railway.highspeed" priority="21" numLanes="1" speed="69.44" allow="rail_fast" oneway="1"/>
    <type id="railway.light_rail" priority="19" numLanes="1" speed="27.78" allow="rail_urban" oneway="1"/>
    <type id="railway.preserved" priority="16" numLanes="1" speed="27.78" allow="rail" oneway="1"/>
    <type id="railway.rail" priority="20" numLanes="1" speed="44.44" allow="rail" oneway="1"/>
    <type id="railway.subway" priority="18" numLanes="1" speed="27.78" allow="rail_urban" oneway="1"/>
    <type id="railway.tram" priority="17" numLanes="1" speed="13.89" allow="tram" oneway="1"/>

    <edge id=":10264901493_0" function="internal">
        <lane id=":10264901493_0_0" index="0" disallow="tram rail_urban rail rail_electric rail_fast ship" speed="16.67" length="8.19" shape="3215.58,8087.12 3215.07,8084.80 3214.34,8083.30 3213.58,8081.80 3213.01,8079.49"/>
        <lane id=":10264901493_0_1" index="1" disallow="tram rail_urban rail rail_electric rail_fast ship" speed="16.67" length="8.19" shape="3218.76,8086.77 3218.25,8084.42 3217.51,8082.90 3216.76,8081.39 3216.18,8079.05"/>
        <lane id=":10264901493_0_2" index="2" disallow="tram rail_urban rail rail_electric rail_fast ship" speed="16.67" length="8.19" shape="3221.94,8086.41 3221.42,8084.04 3220.69,8082.50 3219.93,8080.97 3219.35,8078.61"/>
    </edge>
    <edge id=":10852715549_0" function="internal">
        <lane id=":10852715549_0_0" index="0" allow="pedestrian bus delivery bicycle" speed="5.56" length="9.03" shape="5832.28,2124.14 5829.81,2124.00 5827.89,2124.68 5826.52,2126.20 5825.70,2128.54"/>
    </edge>
    <edge id=":10852715549_1" function="internal">
        <lane id=":10852715549_1_0" index="0" allow="pedestrian bus delivery bicycle" speed="5.56" length="11.20" shape="5832.28,2124.14 5821.30,2121.92"/>
    </edge>
    <edge id=":10852715550_0" function="internal">
        <lane id=":10852715550_0_0" index="0" allow="pedestrian bus delivery bicycle" speed="5.56" length="9.01" shape="5822.70,2143.84 5822.58,2146.31 5823.26,2148.23 5824.77,2149.60 5827.09,2150.42"/>
    </edge>
    <edge id=":10852715550_1" function="internal">
        <lane id=":10852715550_1_0" index="0" allow="pedestrian bus delivery bicycle" speed="5.56" length="11.15" shape="5816.15,2148.22 5827.09,2150.42"/>
    </edge>
    <edge id=":1150197070_0" function="internal">
        <lane id=":1150197070_0_0" index="0" disallow="bicycle tram rail_urban rail rail_electric rail_fast ship" speed="16.67" length="8.17" shape="6351.12,2377.31 6351.67,2379.69 6352.41,2381.24 6353.14,2382.79 6353.63,2385.18"/>
        <lane id=":1150197070_0_1" index="1" disallow="bicycle tram rail_urban rail rail_electric rail_fast ship" speed="16.67" length="8.17" shape="6347.95,2377.71 6348.50,2380.07 6349.23,2381.61 6349.96,2383.14 6350.45,2385.51"/>
        <lane id=":1150197070_0_2" index="2" disallow="bicycle tram rail_urban rail rail_electric rail_fast ship" speed="16.67" length="8.17" shape="6344.77,2378.12 6345.32,2380.45 6346.06,2381.97 6346.77,2383.49 6347.27,2385.84"/>
        <lane id=":1150197070_0_3" index="3" disallow="bicycle tram rail_urban rail rail_electric rail_fast ship" speed="16.67" length="8.17" shape="6341.60,2378.52 6342.14,2380.83 6342.88,2382.34 6343.59,2383.84 6344.09,2386.16"/>
        <lane id=":1150197070_0_4" index="4" disallow="bicycle tram rail_urban rail rail_electric rail_fast ship" speed="16.67" length="8.17" shape="6341.60,2378.52 6341.64,2380.88 6341.28,2382.50 6340.91,2384.12 6340.90,2386.49"/>
    </edge>
    <edge id=":1150246913_0" function="internal">
        <lane id=":1150246913_0_0" index="0" disallow="bicycle tram rail_urban rail rail_electric rail_fast ship" speed="16.67" length="8.20" shape="6380.59,2511.99 6379.97,2509.64 6379.19,2508.11 6378.41,2506.59 6377.84,2504.23"/>
        <lane id=":1150246913_0_1" index="1" disallow="bicycle tram rail_urban rail rail_electric rail_fast ship" speed="16.67" length="8.20" shape="6380.59,2511.99 6380.47,2509.57 6380.77,2507.90 6381.09,2506.22 6381.01,2503.79"/>
        <lane id=":1150246913_0_2" index="2" disallow="bicycle tram rail_urban rail rail_electric rail_fast ship" speed="16.67" length="8.20" shape="6383.76,2511.50 6383.63,2509.10 6383.94,2507.43 6384.26,2505.77 6384.18,2503.36"/>
        <lane id=":1150246913_0_3" index="3" disallow="bicycle tram rail_urban rail rail_electric rail_fast ship" speed="16.67" length="8.20" shape="6386.92,2511.01 6386.80,2508.62 6387.10,2506.97 6387.42,2505.31 6387.35,2502.92"/>
        <lane id=":1150246913_0_4" index="4" disallow="bicycle tram rail_urban rail rail_electric rail_fast ship" speed="16.67" length="8.20" shape="6390.08,2510.51 6389.96,2508.14 6390.27,2506.50 6390.59,2504.86 6390.52,2502.49"/>
    </edge>
    <edge id=":1167537187_0" function="internal">
        <lane id=":1167537187_0_0" index="0" disallow="tram rail_urban rail rail_electric rail_fast ship" speed="16.67" length="8.15" shape="5387.46,11190.44 5386.81,11188.22 5385.98,11186.81 5385.13,11185.41 5384.39,11183.21"/>
        <lane id=":1167537187_0_1" index="1" disallow="tram rail_urban rail rail_electric rail_fast ship" speed="16.67" length="8.15" shape="5390.61,11189.88 5389.95,11187.62 5389.12,11186.19 5388.26,11184.76 5387.51,11182.52"/>
        <lane id=":1167537187_0_2" index="2" disallow="tram rail_urban rail rail_electric rail_fast ship" speed="16.67" length="8.15" shape="5393.76,11189.32 5393.09,11187.02 5392.26,11185.56 5391.39,11184.11 5390.64,11181.83"/>
        <lane id=":1167537187_0_3" index="3" disallow="tram rail_urban rail rail_electric rail_fast ship" speed="16.67" length="8.15" shape="5396.91,11188.76 5396.24,11186.42 5395.40,11184.94 5394.53,11183.46 5393.76,11181.14"/>
        <lane id=":1167537187_0_4" index="4" disallow="tram rail_urban rail rail_electric rail_fast ship" speed="16.67" length="8.15" shape="5396.91,11188.76 5396.73,11186.31 5396.96,11184.59 5397.17,11182.89 5396.89,11180.46"/>
    </edge>
    <edge id=":1167544109_0" function="internal">
        <lane id=":1167544109_0_0" index="0" disallow="tram rail_urban rail rail_electric rail_fast ship" speed="16.67" length="8.12" shape="5843.70,11735.87 5845.77,11734.87 5847.01,11733.83 5848.24,11732.75 5850.28,11731.64"/>
        <lane id=":1167544109_0_1" index="1" disallow="tram rail_urban rail rail_electric rail_fast ship" speed="16.67" length="8.12" shape="5844.76,11738.89 5846.88,11737.87 5848.16,11736.82 5849.42,11735.73 5851.50,11734.60"/>
        <lane id=":1167544109_0_2" index="2" disallow="tram rail_urban rail rail_electric rail_fast ship" speed="16.67" length="8.12" shape="5845.83,11741.91 5847.99,11740.87 5849.30,11739.81 5850.59,11738.70 5852.72,11737.56"/>
        <lane id=":1167544109_0_3" index="3" disallow="tram rail_urban rail rail_electric rail_fast ship" speed="16.67" length="8.12" shape="5846.89,11744.92 5849.10,11743.88 5850.44,11742.80 5851.77,11741.68 5853.94,11740.52"/>
    </edge>
    <edge id=":1167567948_0" function="internal">
        <lane id=":1167567948_0_0" index="0" disallow="tram rail_urban rail rail_electric rail_fast ship" speed="16.67" length="8.08" shape="5884.05,11720.93 5886.06,11719.78 5887.22,11718.64 5888.37,11717.47 5890.31,11716.20"/>
        <lane id=":1167567948_0_1" index="1" disallow="tram rail_urban rail rail_electric rail_fast ship" speed="16.67" length="8.08" shape="5885.33,11723.86 5887.39,11722.69 5888.59,11721.54 5889.77,11720.35 5891.77,11719.06"/>
        <lane id=":1167567948_0_2" index="2" disallow="tram rail_urban rail rail_electric rail_fast ship" speed="16.67" length="8.08" shape="5886.62,11726.79 5888.72,11725.60 5889.96,11724.43 5891.17,11723.23 5893.22,11721.91"/>
    </edge>
    <edge id=":1215011718_0" function="internal">
        <lane id=":1215011718_0_0" index="0" disallow="tram rail_urban rail rail_electric rail_fast ship" speed="16.67" length="8.60" shape="2294.97,6128.77 2292.44,6129.00 2290.76,6129.92 2289.09,6130.83 2286.56,6131.01"/>
        <lane id=":1215011718_0_1" index="1" disallow="tram rail_urban rail rail_electric rail_fast ship" speed="16.67" length="8.60" shape="2295.31,6125.59 2292.80,6125.82 2291.13,6126.75 2289.47,6127.65 2286.97,6127.83"/>
        <lane id=":1215011718_0_2" index="2" disallow="tram rail_urban rail rail_electric rail_fast ship" speed="16.67" length="8.60" shape="2295.65,6122.40 2293.15,6122.64 2291.50,6123.57 2289.86,6124.47 2287.37,6124.66"/>
        <lane id=":1215011718_0_3" index="3" disallow="tram rail_urban rail rail_electric rail_fast ship" speed="16.67" length="8.60" shape="2295.65,6122.40 2287.78,6121.49"/>
    </edge>
    <edge id=":1215011718_4" function="internal">
        <lane id=":1215011718_4_0" index="0" allow="bus bicycle" speed="16.67" length="7.85" shape="2288.18,6118.31 2295.98,6119.22"/>
    </edge>
    <edge id=":1294427461_0" function="internal">
        <lane id=":1294427461_0_0" index="0" disallow="tram rail_urban rail rail_electric rail_fast ship" speed="15.28" length="9.40" shape="4920.21,1906.07 4920.99,1903.18 4921.76,1901.25 4922.90,1899.52 4924.82,1897.22"/>
        <lane id=":1294427461_0_1" index="1" disallow="tram rail_urban rail rail_electric rail_fast ship" speed="15.28" length="9.40" shape="4923.31,1906.86 4923.98,1904.39 4924.63,1902.74 4925.61,1901.27 4927.24,1899.30"/>
    </edge>
    <edge id=":1366319965_0" function="internal">
        <lane id=":1366319965_0_0" index="0" disallow="tram rail_urban rail rail_electric rail_fast ship" speed="13.43" length="91.01" shape="5355.82,564.83 5346.12,597.59 5343.40,608.72 5347.67,598.21 5358.92,566.07"/>
    </edge>
    <edge id=":1366319965_1" function="internal">
        <lane id=":1366319965_1_0" index="0" disallow="tram rail_urban rail rail_electric rail_fast ship" speed="13.89" length="60.93" shape="5355.82,564.83 5353.24,576.97 5350.12,595.05 5346.89,613.08 5343.97,625.10"/>
        <lane id=":1366319965_1_1" index="1" disallow="tram rail_urban rail rail_electric rail_fast ship" speed="13.89" length="60.93" shape="5352.52,564.70 5349.98,576.68 5346.97,594.42 5343.85,612.11 5340.97,623.98"/>
    </edge>
    <edge id=":1366319965_3" function="internal">
        <lane id=":1366319965_3_0" index="0" disallow="tram rail_urban rail rail_electric rail_fast ship" speed="13.89" length="60.02" shape="5334.98,621.74 5358.92,566.07"/>
        <lane id=":1366319965_3_1" index="1" disallow="tram rail_urban rail rail_electric rail_fast ship" speed="13.89" length="60.02" shape="5337.98,622.86 5361.53,568.30"/>
    </edge>
    <edge id=":1366319965_5" function="internal">
        <lane id=":1366319965_5_0" index="0" disallow="tram rail_urban rail rail_electric rail_fast ship" speed="3.65" length="1.32" shape="5337.98,622.86 5339.05,622.09"/>
    </edge>
    <edge id=":1366319965_6" function="internal">
        <lane id=":1366319965_6_0" index="0" disallow="tram rail_urban rail rail_electric rail_fast ship" speed="3.65" length="3.35" shape="5339.05,622.09 5339.15,622.02 5340.04,621.92 5340.64,622.58 5340.97,623.98"/>
    </edge>
    <edge id=":1366319967_0" function="internal">
        <lane id=":1366319967_0_0" index="0" disallow="tram rail_urban rail rail_electric rail_fast ship" speed="6.31" length="16.41" shape="5194.63,967.88 5196.67,961.87 5196.79,959.18 5194.96,959.80 5191.20,963.74"/>
    </edge>
    <edge id=":1366319967_1" function="internal">
        <lane id=":1366319967_1_0" index="0" disallow="tram rail_urban rail rail_electric rail_fast ship" speed="13.89" length="13.52" shape="5194.63,967.88 5194.69,964.10 5192.65,961.39 5190.68,958.72 5190.93,955.02"/>
        <lane id=":1366319967_1_1" index="1" disallow="tram rail_urban rail rail_electric rail_fast ship" speed="13.89" length="13.52" shape="5198.05,967.76 5196.92,964.19 5194.89,961.85 5193.39,959.61 5193.84,956.35"/>
    </edge>
    <edge id=":1366319967_3" function="internal">
        <lane id=":1366319967_3_0" index="0" disallow="tram rail_urban rail rail_electric rail_fast ship" speed="13.89" length="9.71" shape="5199.66,959.02 5197.93,961.09 5195.85,961.64 5193.56,962.06 5191.20,963.74"/>
        <lane id=":1366319967_3_1" index="1" disallow="tram rail_urban rail rail_electric rail_fast ship" speed="13.89" length="9.71" shape="5196.75,957.68 5195.12,959.54 5193.14,959.92 5190.96,960.18 5188.76,961.67"/>
    </edge>
    <edge id=":1366319967_5" function="internal">
        <lane id=":1366319967_5_0" index="0" disallow="tram rail_urban rail rail_electric rail_fast ship" speed="3.65" length="1.16" shape="5196.75,957.68 5195.77,958.29"/>
    </edge>
    <edge id=":1366319967_6" function="internal">
        <lane id=":1366319967_6_0" index="0" disallow="tram rail_urban rail rail_electric rail_fast ship" speed="3.65" length="3.52" shape="5195.77,958.29 5195.52,958.44 5194.63,958.47 5194.07,957.77 5193.84,956.35"/>
    </edge>
    <edge id=":1531015639_0" function="internal">
        <lane id=":1531015639_0_0" index="0" disallow="tram rail_urban rail rail_electric rail_fast ship" speed="16.67" length="7.70" shape="2889.61,6447.93 2890.28,6450.16 2891.44,6451.52 2892.49,6452.89 2892.85,6455.12"/>
        <lane id=":1531015639_0_1" index="1" disallow="tram rail_urban rail rail_electric rail_fast ship" speed="16.67" length="7.70" shape="2886.42,6448.18 2887.08,6450.28 2888.24,6451.55 2889.29,6452.81 2889.66,6454.91"/>
        <lane id=":1531015639_0_2" index="2" disallow="tram rail_urban rail rail_electric rail_fast ship" speed="16.67" length="7.70" shape="2883.23,6448.43 2883.88,6450.40 2885.03,6451.57 2886.09,6452.74 2886.47,6454.71"/>
    </edge>
    <edge id=":1726563989_0" function="internal">
        <lane id=":1726563989_0_0" index="0" disallow="bicycle tram rail_urban rail rail_electric rail_fast ship" speed="16.67" length="8.21" shape="6365.85,2387.08 6365.32,2384.74 6364.58,2383.23 6363.83,2381.72 6363.27,2379.39"/>
        <lane id=":1726563989_0_1" index="1" disallow="bicycle tram rail_urban rail rail_electric rail_fast ship" speed="16.67" length="8.21" shape="6369.03,2386.70 6368.49,2384.35 6367.75,2382.83 6367.00,2381.31 6366.45,2378.97"/>
        <lane id=":1726563989_0_2" index="2" disallow="bicycle tram rail_urban rail rail_electric rail_fast ship" speed="16.67" length="8.21" shape="6372.20,2386.32 6371.67,2383.96 6370.93,2382.44 6370.18,2380.91 6369.62,2378.56"/>
        <lane id=":1726563989_0_3" index="3" disallow="bicycle tram rail_urban rail rail_electric rail_fast ship" speed="16.67" length="8.21" shape="6375.38,2385.93 6374.85,2383.57 6374.10,2382.04 6373.35,2380.51 6372.79,2378.15"/>
    </edge>
    <edge id=":1726587015_0" function="internal">
        <lane id=":1726587015_0_0" index="0" disallow="bicycle tram rail_urban rail rail_electric rail_fast ship" speed="16.67" length="8.20" shape="6416.26,2865.57 6416.83,2867.88 6417.59,2869.37 6418.36,2870.86 6418.97,2873.16"/>
        <lane id=":1726587015_0_1" index="1" disallow="bicycle tram rail_urban rail rail_electric rail_fast ship" speed="16.67" length="8.20" shape="6413.09,2866.00 6413.66,2868.33 6414.42,2869.83 6415.20,2871.33 6415.81,2873.65"/>
        <lane id=":1726587015_0_2" index="2" disallow="bicycle tram rail_urban rail rail_electric rail_fast ship" speed="16.67" length="8.20" shape="6409.92,2866.42 6410.49,2868.77 6411.25,2870.28 6412.03,2871.79 6412.65,2874.14"/>
        <lane id=":1726587015_0_3" index="3" disallow="bicycle tram rail_urban rail rail_electric rail_fast ship" speed="16.67" length="8.20" shape="6409.92,2866.42 6409.99,2868.85 6409.67,2870.53 6409.36,2872.20 6409.48,2874.62"/>
    </edge>
    <edge id=":175259203_0" function="internal">
        <lane id=":175259203_0_0" index="0" disallow="bicycle tram rail_urban rail rail_electric rail_fast ship" speed="3.91" length="2.40" shape="6347.16,1949.31 6347.14,1948.66 6346.92,1948.16 6346.51,1947.79 6345.90,1947.58"/>
        <lane id=":175259203_0_1" index="1" disallow="bicycle tram rail_urban rail rail_electric rail_fast ship" speed="6.09" length="7.21" shape="6350.35,1949.65 6350.28,1947.70 6349.63,1946.19 6348.38,1945.10 6346.55,1944.44"/>
        <lane id=":175259203_0_2" index="2" disallow="bicycle tram rail_urban rail rail_electric rail_fast ship" speed="7.68" length="12.01" shape="6353.53,1949.99 6353.42,1946.75 6352.33,1944.22 6350.26,1942.40 6347.20,1941.31"/>
        <lane id=":175259203_0_3" index="3" disallow="bicycle tram rail_urban rail rail_electric rail_fast ship" speed="8.99" length="16.81" shape="6356.71,1950.33 6356.56,1945.79 6355.03,1942.24 6352.13,1939.71 6347.85,1938.17"/>
        <lane id=":175259203_0_4" index="4" disallow="bicycle tram rail_urban rail rail_electric rail_fast ship" speed="10.13" length="21.62" shape="6359.89,1950.67 6359.70,1944.83 6357.74,1940.27 6354.00,1937.01 6348.50,1935.04"/>
    </edge>
    <edge id=":175259218_0" function="internal">
        <lane id=":175259218_0_0" index="0" disallow="tram rail_urban rail rail_electric rail_fast ship" speed="15.28" length="9.73" shape="6341.05,1946.57 6338.36,1946.78 6336.59,1948.09 6334.82,1949.39 6332.14,1949.56"/>
        <lane id=":175259218_0_1" index="1" disallow="tram rail_urban rail rail_electric rail_fast ship" speed="15.28" length="9.73" shape="6341.70,1943.44 6339.02,1943.65 6337.26,1944.96 6335.50,1946.27 6332.83,1946.44"/>
        <lane id=":175259218_0_2" index="2" disallow="tram rail_urban rail rail_electric rail_fast ship" speed="15.28" length="9.73" shape="6342.35,1940.30 6339.68,1940.52 6337.93,1941.84 6336.18,1943.14 6333.53,1943.32"/>
        <lane id=":175259218_0_3" index="3" disallow="tram rail_urban rail rail_electric rail_fast ship" speed="15.28" length="9.73" shape="6343.00,1937.17 6340.35,1937.39 6338.60,1938.71 6336.87,1940.01 6334.22,1940.19"/>
    </edge>
    <edge id=":175259218_4" function="internal">
        <lane id=":175259218_4_0" index="0" allow="bus bicycle" speed="3.65" length="1.16" shape="6334.92,1937.07 6335.72,1937.91"/>
    </edge>
    <edge id=":175259218_5" function="internal">
        <lane id=":175259218_5_0" index="0" allow="bus bicycle" speed="3.65" length="3.51" shape="6335.72,1937.91 6335.92,1938.11 6336.13,1938.98 6335.57,1939.67 6334.22,1940.19"/>
    </edge>
    <edge id=":175259756_0" function="internal">
        <lane id=":175259756_0_0" index="0" disallow="tram rail_urban rail rail_electric rail_fast ship" speed="13.89" length="9.72" shape="4921.17,1662.32 4918.53,1662.67 4916.85,1664.08 4915.18,1665.49 4912.53,1665.84"/>
        <lane id=":175259756_0_1" index="1" disallow="tram rail_urban rail rail_electric rail_fast ship" speed="13.89" length="9.72" shape="4921.66,1659.16 4919.02,1659.51 4917.34,1660.92 4915.67,1662.33 4913.02,1662.68"/>
        <lane id=":175259756_0_2" index="2" disallow="tram rail_urban rail rail_electric rail_fast ship" speed="13.89" length="9.72" shape="4922.15,1656.00 4919.51,1656.35 4917.83,1657.76 4916.16,1659.17 4913.51,1659.52"/>
        <lane id=":175259756_0_3" index="3" disallow="tram rail_urban rail rail_electric rail_fast ship" speed="13.89" length="9.72" shape="4922.64,1652.84 4920.00,1653.18 4918.32,1654.59 4916.65,1656.01 4914.00,1656.35"/>
    </edge>
    <edge id=":175259772_0" function="internal">
        <lane id=":175259772_0_0" index="0" disallow="tram rail_urban rail rail_electric rail_fast ship" speed="6.76" length="12.51" shape="4910.27,1662.25 4907.16,1662.35 4905.21,1663.77 4904.43,1666.53 4904.82,1670.62"/>
        <lane id=":175259772_0_1" index="1" disallow="tram rail_urban rail rail_electric rail_fast ship" speed="8.22" length="19.14" shape="4910.76,1659.09 4905.72,1659.16 4902.52,1661.21 4901.18,1665.24 4901.68,1671.26"/>
        <lane id=":175259772_0_2" index="2" disallow="tram rail_urban rail rail_electric rail_fast ship" speed="9.47" length="25.78" shape="4911.25,1655.93 4904.28,1655.97 4899.83,1658.64 4897.92,1663.96 4898.55,1671.90"/>
    </edge>
    <edge id=":1791956063_0" function="internal">
        <lane id=":1791956063_0_0" index="0" disallow="tram rail_urban rail rail_electric rail_fast ship" speed="19.44" length="7.48" shape="902.53,6157.18 904.59,6155.94 905.84,6154.81 907.13,6153.76 909.28,6152.79"/>
        <lane id=":1791956063_0_1" index="1" disallow="tram rail_urban rail rail_electric rail_fast ship" speed="19.44" length="7.48" shape="902.53,6157.18 904.71,6156.43 906.33,6156.33 907.98,6156.32 910.27,6155.84"/>
        <lane id=":1791956063_0_2" index="2" disallow="tram rail_urban rail rail_electric rail_fast ship" speed="19.44" length="7.48" shape="903.90,6160.07 905.97,6159.38 907.51,6159.31 909.08,6159.33 911.25,6158.89"/>
        <lane id=":1791956063_0_3" index="3" disallow="tram rail_urban rail rail_electric rail_fast ship" speed="19.44" length="7.48" shape="905.26,6162.97 907.22,6162.33 908.68,6162.29 910.18,6162.34 912.23,6161.93"/>
        <lane id=":1791956063_0_4" index="4" disallow="tram rail_urban rail rail_electric rail_fast ship" speed="19.44" length="7.48" shape="906.62,6165.86 908.48,6165.27 909.86,6165.27 911.27,6165.35 913.22,6164.98"/>
    </edge>
    <edge id=":1791956131_0" function="internal">
        <lane id=":1791956131_0_0" index="0" disallow="tram rail_urban rail rail_electric rail_fast ship" speed="19.44" length="6.79" shape="801.83,6217.99 803.27,6216.25 804.04,6214.83 804.88,6213.52 806.56,6212.06"/>
        <lane id=":1791956131_0_1" index="1" disallow="tram rail_urban rail rail_electric rail_fast ship" speed="19.44" length="6.79" shape="801.83,6217.99 803.53,6216.69 804.94,6216.16 806.43,6215.73 808.36,6214.71"/>
        <lane id=":1791956131_0_2" index="2" disallow="tram rail_urban rail rail_electric rail_fast ship" speed="19.44" length="6.79" shape="804.06,6220.28 805.64,6219.09 806.97,6218.64 808.37,6218.28 810.16,6217.35"/>
        <lane id=":1791956131_0_3" index="3" disallow="tram rail_urban rail rail_electric rail_fast ship" speed="19.44" length="6.79" shape="806.30,6222.57 807.76,6221.50 809.00,6221.13 810.30,6220.83 811.96,6220.00"/>
        <lane id=":1791956131_0_4" index="4" disallow="tram rail_urban rail rail_electric rail_fast ship" speed="19.44" length="6.79" shape="808.53,6224.86 809.87,6223.90 811.03,6223.61 812.24,6223.39 813.76,6222.65"/>
    </edge>
    <edge id=":1794825303_0" function="internal">
        <lane id=":1794825303_0_0" index="0" disallow="tram rail_urban rail rail_electric rail_fast ship" speed="13.89" length="8.15" shape="4336.76,4185.43 4335.85,4187.66 4335.57,4189.33 4335.27,4190.99 4334.31,4193.19"/>
        <lane id=":1794825303_0_1" index="1" disallow="tram rail_urban rail rail_electric rail_fast ship" speed="13.89" length="8.15" shape="4333.93,4183.92 4333.04,4186.13 4332.77,4187.79 4332.48,4189.43 4331.53,4191.60"/>
    </edge>
    <edge id=":1830096063_0" function="internal">
        <lane id=":1830096063_0_0" index="0" disallow="tram rail_urban rail rail_electric rail_fast ship" speed="13.89" length="8.18" shape="4956.47,1677.66 4954.13,1677.39 4952.48,1677.59 4950.83,1677.81 4948.48,1677.58"/>
        <lane id=":1830096063_0_1" index="1" disallow="tram rail_urban rail rail_electric rail_fast ship" speed="13.89" length="8.18" shape="4956.47,1677.66 4954.23,1676.90 4952.81,1676.03 4951.38,1675.16 4949.13,1674.44"/>
        <lane id=":1830096063_0_2" index="2" disallow="tram rail_urban rail rail_electric rail_fast ship" speed="13.89" length="8.18" shape="4957.17,1674.54 4954.91,1673.77 4953.48,1672.90 4952.04,1672.03 4949.77,1671.31"/>
        <lane id=":1830096063_0_3" index="3" disallow="tram rail_urban rail rail_electric rail_fast ship" speed="13.89" length="8.18" shape="4957.87,1671.42 4955.60,1670.65 4954.15,1669.77 4952.71,1668.90 4950.42,1668.17"/>
        <lane id=":1830096063_0_4" index="4" disallow="tram rail_urban rail rail_electric rail_fast ship" speed="13.89" length="8.18" shape="4958.58,1668.29 4956.28,1667.52 4954.83,1666.64 4953.37,1665.77 4951.07,1665.04"/>
        <lane id=":1830096063_0_5" index="5" disallow="tram rail_urban rail rail_electric rail_fast ship" speed="13.89" length="8.18" shape="4959.28,1665.17 4956.97,1664.40 4955.50,1663.51 4954.03,1662.64 4951.71,1661.91"/>
        <lane id=":1830096063_0_6" index="6" disallow="tram rail_urban rail rail_electric rail_fast ship" speed="13.89" length="8.18" shape="4959.98,1662.05 4957.65,1661.27 4956.17,1660.38 4954.69,1659.51 4952.36,1658.77"/>
    </edge>
    <edge id=":1830096070_0" function="internal">
        <lane id=":1830096070_0_0" index="0" allow="bus bicycle" speed="16.67" length="6.48" shape="4920.38,1766.55 4920.28,1764.63 4920.18,1763.32 4920.01,1762.01 4919.71,1760.11"/>
    </edge>
    <edge id=":1830096070_1" function="internal">
        <lane id=":1830096070_1_0" index="0" disallow="tram rail_urban rail rail_electric rail_fast ship" speed="16.67" length="8.12" shape="4932.34,1758.04 4933.24,1760.46 4934.54,1761.90 4935.75,1763.36 4936.36,1765.81"/>