<additional>
     <person id="p1" depart="0" departPos="221">
        <walk from="0" busStop="stop1"/>
    </person>
    <person id="p2" depart="0" departPos="221">
        <walk from="0" busStop="stop1"/>
    </person>
    <person id="p3" depart="0" departPos="221">
        <walk from="0" busStop="stop1"/>
    </person>
    <person id="p4" depart="0" departPos="221">
        <walk from="0" busStop="stop1"/>
    </person>
    <person id="p5" depart="0" departPos="221">
        <walk from="0" busStop="stop1"/>
    </person>
    <person id="p6" depart="0" departPos="221">
        <walk from="0" busStop="stop1"/>
    </person>
    <person id="p7" depart="0" departPos="221">
        <walk from="0" busStop="stop1"/>
    </person>
    <person id="p8" depart="0" departPos="221">
        <walk from="0" busStop="stop1"/>
    </person>
    <person id="p9" depart="0" departPos="221">
        <walk from="0" busStop="stop1"/>
    </person>
    <person id="p10" depart="0" departPos="221">
        <walk from="0" busStop="stop1"/>
    </person>


    <person id="p11" depart="0" departPos="221">
        <walk from="1" busStop="stop2"/>
    </person>
    <person id="p12" depart="0" departPos="221">
        <walk from="1" busStop="stop2"/>
    </person>
    <person id="p13" depart="0" departPos="221">
        <walk from="1" busStop="stop2"/>
    </person>
    <person id="p14" depart="0" departPos="221">
        <walk from="1" busStop="stop2"/>
    </person>
    <person id="p15" depart="0" departPos="221">
        <walk from="1" busStop="stop2"/>
    </person>
    <person id="p16" depart="0" departPos="221">
        <walk from="1" busStop="stop2"/>
    </person>
    <person id="p17" depart="0" departPos="221">
        <walk from="1" busStop="stop2"/>
    </person>
    <person id="p18" depart="0" departPos="221">
        <walk from="1" busStop="stop2"/>
    </person>
    <person id="p19" depart="0" departPos="221">
        <walk from="1" busStop="stop2"/>
    </person>
    <person id="p20" depart="0" departPos="221">
        <walk from="1" busStop="stop2"/>
    </person>


    <person id="p21" depart="0" departPos="221">
        <walk from="2" busStop="stop3"/>
    </person>
    <person id="p22" depart="0" departPos="221">
        <walk from="2" busStop="stop3"/>
    </person>
    <person id="p23" depart="0" departPos="221">
        <walk from="2" busStop="stop3"/>
    </person>
    <person id="p24" depart="0" departPos="221">
        <walk from="2" busStop="stop3"/>
    </person>
    <person id="p25" depart="0" departPos="221">
        <walk from="2" busStop="stop3"/>
    </person>
    <person id="p26" depart="0" departPos="221">
        <walk from="2" busStop="stop3"/>
    </person>
    <person id="p27" depart="0" departPos="221">
        <walk from="2" busStop="stop3"/>
    </person>
    <person id="p28" depart="0" departPos="221">
        <walk from="2" busStop="stop3"/>
    </person>
    <person id="p29" depart="0" departPos="221">
        <walk from="2" busStop="stop3"/>
    </person>
    <person id="p30" depart="0" departPos="221">
        <walk from="2" busStop="stop3"/>
    </person>


    <person id="p31" depart="0" departPos="221">
        <walk from="3" busStop="stop4"/>
    </person>
    <person id="p32" depart="0" departPos="221">
        <walk from="3" busStop="stop4"/>
    </person>
    <person id="p33" depart="0" departPos="221">
        <walk from="3" busStop="stop4"/>
    </person>
    <person id="p34" depart="0" departPos="221">
        <walk from="3" busStop="stop4"/>
    </person>
    <person id="p35" depart="0" departPos="221">
        <walk from="3" busStop="stop4"/>
    </person>
    <person id="p36" depart="0" departPos="221">
        <walk from="3" busStop="stop4"/>
    </person>
    <person id="p37" depart="0" departPos="221">
        <walk from="3" busStop="stop4"/>
    </person>
    <person id="p38" depart="0" departPos="221">
        <walk from="3" busStop="stop4"/>
    </person>
    <person id="p39" depart="0" departPos="221">
        <walk from="3" busStop="stop4"/>
    </person>
    <person id="p40" depart="0" departPos="221">
        <walk from="3" busStop="stop4"/>
    </person>


    <person id="p41" depart="0" departPos="221">
        <walk from="4" busStop="stop5"/>
    </person>
    <person id="p42" depart="0" departPos="221">
        <walk from="4" busStop="stop5"/>
    </person>
    <person id="p43" depart="0" departPos="221">
        <walk from="4" busStop="stop5"/>
    </person>
    <person id="p44" depart="0" departPos="221">
        <walk from="4" busStop="stop5"/>
    </person>
    <person id="p45" depart="0" departPos="221">
        <walk from="4" busStop="stop5"/>
    </person>
    <person id="p46" depart="0" departPos="221">
        <walk from="4" busStop="stop5"/>
    </person>
    <person id="p47" depart="0" departPos="221">
        <walk from="4" busStop="stop5"/>
    </person>
    <person id="p48" depart="0" departPos="221">
        <walk from="4" busStop="stop5"/>
    </person>
    <person id="p49" depart="0" departPos="221">
        <walk from="4" busStop="stop5"/>
    </person>
    <person id="p50" depart="0" departPos="221">
        <walk from="4" busStop="stop5"/>
    </person>


    <person id="p51" depart="0" departPos="221">
        <walk from="5" busStop="stop6"/>
    </person>
    <person id="p52" depart="0" departPos="221">
        <walk from="5" busStop="stop6"/>
    </person>
    <person id="p53" depart="0" departPos="221">
        <walk from="5" busStop="stop6"/>
    </person>
    <person id="p54" depart="0" departPos="221">
        <walk from="5" busStop="stop6"/>
    </person>
    <person id="p55" depart="0" departPos="221">
        <walk from="5" busStop="stop6"/>
    </person>
    <person id="p56" depart="0" departPos="221">
        <walk from="5" busStop="stop6"/>
    </person>
    <person id="p57" depart="0" departPos="221">
        <walk from="5" busStop="stop6"/>
    </person>
    <person id="p58" depart="0" departPos="221">
        <walk from="5" busStop="stop6"/>
    </person>
    <person id="p59" depart="0" departPos="221">
        <walk from="5" busStop="stop6"/>
    </person>
    <person id="p60" depart="0" departPos="221">
        <walk from="5" busStop="stop6"/>
    </person>


    <person id="p61" depart="0" departPos="221">
        <walk from="6" busStop="stop7"/>
    </person>
    <person id="p62" depart="0" departPos="221">
        <walk from="6" busStop="stop7"/>
    </person>
    <person id="p63" depart="0" departPos="221">
        <walk from="6" busStop="stop7"/>
    </person>
    <person id="p64" depart="0" departPos="221">
        <walk from="6" busStop="stop7"/>
    </person>
    <person id="p65" depart="0" departPos="221">
        <walk from="6" busStop="stop7"/>
    </person>
    <person id="p66" depart="0" departPos="221">
        <walk from="6" busStop="stop7"/>
    </person>
    <person id="p67" depart="0" departPos="221">
        <walk from="6" busStop="stop7"/>
    </person>
    <person id="p68" depart="0" departPos="221">
        <walk from="6" busStop="stop7"/>
    </person>
    <person id="p69" depart="0" departPos="221">
        <walk from="6" busStop="stop7"/>
    </person>
    <person id="p70" depart="0" departPos="221">
        <walk from="6" busStop="stop7"/>
    </person>


    <person id="p71" depart="0" departPos="221">
        <walk from="7" busStop="stop8"/>
    </person>
    <person id="p72" depart="0" departPos="221">
        <walk from="7" busStop="stop8"/>
    </person>
    <person id="p73" depart="0" departPos="221">
        <walk from="7" busStop="stop8"/>
    </person>
    <person id="p74" depart="0" departPos="221">
        <walk from="7" busStop="stop8"/>
    </person>
    <person id="p75" depart="0" departPos="221">
        <walk from="7" busStop="stop8"/>
    </person>
    <person id="p76" depart="0" departPos="221">
        <walk from="7" busStop="stop8"/>
    </person>
    <person id="p77" depart="0" departPos="221">
        <walk from="7" busStop="stop8"/>
    </person>
    <person id="p78" depart="0" departPos="221">
        <walk from="7" busStop="stop8"/>
    </person>
    <person id="p79" depart="0" departPos="221">
        <walk from="7" busStop="stop8"/>
    </person>
    <person id="p80" depart="0" departPos="221">
        <walk from="7" busStop="stop8"/>
    </person>


    <person id="p81" depart="0" departPos="221">
        <walk from="8" busStop="stop9"/>
    </person>
    <person id="p82" depart="0" departPos="221">
        <walk from="8" busStop="stop9"/>
    </person>
    <person id="p83" depart="0" departPos="221">
        <walk from="8" busStop="stop9"/>
    </person>
    <person id="p84" depart="0" departPos="221">
        <walk from="8" busStop="stop9"/>
    </person>
    <person id="p85" depart="0" departPos="221">
        <walk from="8" busStop="stop9"/>
    </person>
    <person id="p86" depart="0" departPos="221">
        <walk from="8" busStop="stop9"/>
    </person>
    <person id="p87" depart="0" departPos="221">
        <walk from="8" busStop="stop9"/>
    </person>
    <person id="p88" depart="0" departPos="221">
        <walk from="8" busStop="stop9"/>
    </person>
    <person id="p89" depart="0" departPos="221">
        <walk from="8" busStop="stop9"/>
    </person>
    <person id="p90" depart="0" departPos="221">
        <walk from="8" busStop="stop9"/>
    </person>


    <person id="p91" depart="0" departPos="221">
        <walk from="9" busStop="stop10"/>
    </person>
    <person id="p92" depart="0" departPos="221">
        <walk from="9" busStop="stop10"/>
    </person>
    <person id="p93" depart="0" departPos="221">
        <walk from="9" busStop="stop10"/>
    </person>
    <person id="p94" depart="0" departPos="221">
        <walk from="9" busStop="stop10"/>
    </person>
    <person id="p95" depart="0" departPos="221">
        <walk from="9" busStop="stop10"/>
    </person>
    <person id="p96" depart="0" departPos="221">
        <walk from="9" busStop="stop10"/>
    </person>
    <person id="p97" depart="0" departPos="221">
        <walk from="9" busStop="stop10"/>
    </person>
    <person id="p98" depart="0" departPos="221">
        <walk from="9" busStop="stop10"/>
    </person>
    <person id="p99" depart="0" departPos="221">
        <walk from="9" busStop="stop10"/>
    </person>
    <person id="p100" depart="0" departPos="221">
        <walk from="9" busStop="stop10"/>
    </person>


    <person id="p101" depart="0" departPos="221">
        <walk from="10" busStop="stop11"/>
    </person>
    <person id="p102" depart="0" departPos="221">
        <walk from="10" busStop="stop11"/>
    </person>
    <person id="p103" depart="0" departPos="221">
        <walk from="10" busStop="stop11"/>
    </person>
    <person id="p104" depart="0" departPos="221">
        <walk from="10" busStop="stop11"/>
    </person>
    <person id="p105" depart="0" departPos="221">
        <walk from="10" busStop="stop11"/>
    </person>
    <person id="p106" depart="0" departPos="221">
        <walk from="10" busStop="stop11"/>
    </person>
    <person id="p107" depart="0" departPos="221">
        <walk from="10" busStop="stop11"/>
    </person>
    <person id="p108" depart="0" departPos="221">
        <walk from="10" busStop="stop11"/>
    </person>
    <person id="p109" depart="0" departPos="221">
        <walk from="10" busStop="stop11"/>
    </person>
    <person id="p110" depart="0" departPos="221">
        <walk from="10" busStop="stop11"/>
    </person>


    <person id="p111" depart="0" departPos="221">
        <walk from="11" busStop="stop12"/>
    </person>
    <person id="p112" depart="0" departPos="221">
        <walk from="11" busStop="stop12"/>
    </person>
    <person id="p113" depart="0" departPos="221">
        <walk from="11" busStop="stop12"/>
    </person>
    <person id="p114" depart="0" departPos="221">
        <walk from="11" busStop="stop12"/>
    </person>
    <person id="p115" depart="0" departPos="221">
        <walk from="11" busStop="stop12"/>
    </person>
    <person id="p116" depart="0" departPos="221">
        <walk from="11" busStop="stop12"/>
    </person>
    <person id="p117" depart="0" departPos="221">
        <walk from="11" busStop="stop12"/>
    </person>
    <person id="p118" depart="0" departPos="221">
        <walk from="11" busStop="stop12"/>
    </person>
    <person id="p119" depart="0" departPos="221">
        <walk from="11" busStop="stop12"/>
    </person>
    <person id="p120" depart="0" departPos="221">
        <walk from="11" busStop="stop12"/>
    </person>




    <!-- - - - - - - - - - - - - - - - - - - - - - - - - - - - - - - - - - - - - - - - -->
    




    <person id="B1" depart="0" departPos="221">
        <walk from="E0" busStop="stop1B"/>
    </person>
    <person id="B2" depart="0" departPos="221">
        <walk from="E0" busStop="stop1B"/>
    </person>
    <person id="B3" depart="0" departPos="221">
        <walk from="E0" busStop="stop1B"/>
    </person>
    <person id="B4" depart="0" departPos="221">
        <walk from="E0" busStop="stop1B"/>
    </person>
    <person id="B5" depart="0" departPos="221">
        <walk from="E0" busStop="stop1B"/>
    </person>
    <person id="B6" depart="0" departPos="221">
        <walk from="E0" busStop="stop1B"/>
    </person>
    <person id="B7" depart="0" departPos="221">
        <walk from="E0" busStop="stop1B"/>
    </person>
    <person id="B8" depart="0" departPos="221">
        <walk from="E0" busStop="stop1B"/>
    </person>
    <person id="B9" depart="0" departPos="221">
        <walk from="E0" busStop="stop1B"/>
    </person>
    <person id="B10" depart="0" departPos="221">
        <walk from="E0" busStop="stop1B"/>
    </person>


    <person id="B11" depart="0" departPos="221">
        <walk from="E1" busStop="stop2B"/>
    </person>
    <person id="B12" depart="0" departPos="221">
        <walk from="E1" busStop="stop2B"/>
    </person>
    <person id="B13" depart="0" departPos="221">
        <walk from="E1" busStop="stop2B"/>
    </person>
    <person id="B14" depart="0" departPos="221">
        <walk from="E1" busStop="stop2B"/>
    </person>
    <person id="B15" depart="0" departPos="221">
        <walk from="E1" busStop="stop2B"/>
    </person>
    <person id="B16" depart="0" departPos="221">
        <walk from="E1" busStop="stop2B"/>
    </person>
    <person id="B17" depart="0" departPos="221">
        <walk from="E1" busStop="stop2B"/>
    </person>
    <person id="B18" depart="0" departPos="221">
        <walk from="E1" busStop="stop2B"/>
    </person>
    <person id="B19" depart="0" departPos="221">
        <walk from="E1" busStop="stop2B"/>
    </person>
    <person id="B20" depart="0" departPos="221">
        <walk from="E1" busStop="stop2B"/>
    </person>


    <person id="B21" depart="0" departPos="221">
        <walk from="E2" busStop="stop3B"/>
    </person>
    <person id="B22" depart="0" departPos="221">
        <walk from="E2" busStop="stop3B"/>
    </person>
    <person id="B23" depart="0" departPos="221">
        <walk from="E2" busStop="stop3B"/>
    </person>
    <person id="B24" depart="0" departPos="221">
        <walk from="E2" busStop="stop3B"/>
    </person>
    <person id="B25" depart="0" departPos="221">
        <walk from="E2" busStop="stop3B"/>
    </person>
    <person id="B26" depart="0" departPos="221">
        <walk from="E2" busStop="stop3B"/>
    </person>
    <person id="B27" depart="0" departPos="221">
        <walk from="E2" busStop="stop3B"/>
    </person>
    <person id="B28" depart="0" departPos="221">
        <walk from="E2" busStop="stop3B"/>
    </person>
    <person id="B29" depart="0" departPos="221">
        <walk from="E2" busStop="stop3B"/>
    </person>
    <person id="B30" depart="0" departPos="221">
        <walk from="E2" busStop="stop3B"/>
    </person>


    <person id="B31" depart="0" departPos="221">
        <walk from="E3" busStop="stop4B"/>
    </person>
    <person id="B32" depart="0" departPos="221">
        <walk from="E3" busStop="stop4B"/>
    </person>
    <person id="B33" depart="0" departPos="221">
        <walk from="E3" busStop="stop4B"/>
    </person>
    <person id="B34" depart="0" departPos="221">
        <walk from="E3" busStop="stop4B"/>
    </person>
    <person id="B35" depart="0" departPos="221">
        <walk from="E3" busStop="stop4B"/>
    </person>
    <person id="B36" depart="0" departPos="221">
        <walk from="E3" busStop="stop4B"/>
    </person>
    <person id="B37" depart="0" departPos="221">
        <walk from="E3" busStop="stop4B"/>
    </person>
    <person id="B38" depart="0" departPos="221">
        <walk from="E3" busStop="stop4B"/>
    </person>
    <person id="B39" depart="0" departPos="221">
        <walk from="E3" busStop="stop4B"/>
    </person>
    <person id="B40" depart="0" departPos="221">
        <walk from="E3" busStop="stop4B"/>
    </person>


    <person id="B41" depart="0" departPos="221">
        <walk from="E4" busStop="stop5B"/>
    </person>
    <person id="B42" depart="0" departPos="221">
        <walk from="E4" busStop="stop5B"/>
    </person>
    <person id="B43" depart="0" departPos="221">
        <walk from="E4" busStop="stop5B"/>
    </person>
    <person id="B44" depart="0" departPos="221">
        <walk from="E4" busStop="stop5B"/>
    </person>
    <person id="B45" depart="0" departPos="221">
        <walk from="E4" busStop="stop5B"/>
    </person>
    <person id="B46" depart="0" departPos="221">
        <walk from="E4" busStop="stop5B"/>
    </person>
    <person id="B47" depart="0" departPos="221">
        <walk from="E4" busStop="stop5B"/>
    </person>
    <person id="B48" depart="0" departPos="221">
        <walk from="E4" busStop="stop5B"/>
    </person>
    <person id="B49" depart="0" departPos="221">
        <walk from="E4" busStop="stop5B"/>
    </person>
    <person id="B50" depart="0" departPos="221">
        <walk from="E4" busStop="stop5B"/>
    </person>


    <person id="B51" depart="0" departPos="221">
        <walk from="E5" busStop="stop6B"/>
    </person>
    <person id="B52" depart="0" departPos="221">
        <walk from="E5" busStop="stop6B"/>
    </person>
    <person id="B53" depart="0" departPos="221">
        <walk from="E5" busStop="stop6B"/>
    </person>
    <person id="B54" depart="0" departPos="221">
        <walk from="E5" busStop="stop6B"/>
    </person>
    <person id="B55" depart="0" departPos="221">
        <walk from="E5" busStop="stop6B"/>
    </person>
    <person id="B56" depart="0" departPos="221">
        <walk from="E5" busStop="stop6B"/>
    </person>
    <person id="B57" depart="0" departPos="221">
        <walk from="E5" busStop="stop6B"/>
    </person>
    <person id="B58" depart="0" departPos="221">
        <walk from="E5" busStop="stop6B"/>
    </person>
    <person id="B59" depart="0" departPos="221">
        <walk from="E5" busStop="stop6B"/>
    </person>
    <person id="B60" depart="0" departPos="221">
        <walk from="E5" busStop="stop6B"/>
    </person>


    <person id="B61" depart="0" departPos="221">
        <walk from="E6" busStop="stop7B"/>
    </person>
    <person id="B62" depart="0" departPos="221">
        <walk from="E6" busStop="stop7B"/>
    </person>
    <person id="B63" depart="0" departPos="221">
        <walk from="E6" busStop="stop7B"/>
    </person>
    <person id="B64" depart="0" departPos="221">
        <walk from="E6" busStop="stop7B"/>
    </person>
    <person id="B65" depart="0" departPos="221">
        <walk from="E6" busStop="stop7B"/>
    </person>
    <person id="B66" depart="0" departPos="221">
        <walk from="E6" busStop="stop7B"/>
    </person>
    <person id="B67" depart="0" departPos="221">
        <walk from="E6" busStop="stop7B"/>
    </person>
    <person id="B68" depart="0" departPos="221">
        <walk from="E6" busStop="stop7B"/>
    </person>
    <person id="B69" depart="0" departPos="221">
        <walk from="E6" busStop="stop7B"/>
    </person>
    <person id="B70" depart="0" departPos="221">
        <walk from="E6" busStop="stop7B"/>
    </person>


    <person id="B71" depart="0" departPos="221">
        <walk from="E7" busStop="stop8B"/>
    </person>
    <person id="B72" depart="0" departPos="221">
        <walk from="E7" busStop="stop8B"/>
    </person>
    <person id="B73" depart="0" departPos="221">
        <walk from="E7" busStop="stop8B"/>
    </person>
    <person id="B74" depart="0" departPos="221">
        <walk from="E7" busStop="stop8B"/>
    </person>
    <person id="B75" depart="0" departPos="221">
        <walk from="E7" busStop="stop8B"/>
    </person>
    <person id="B76" depart="0" departPos="221">
        <walk from="E7" busStop="stop8B"/>
    </person>
    <person id="B77" depart="0" departPos="221">
        <walk from="E7" busStop="stop8B"/>
    </person>
    <person id="B78" depart="0" departPos="221">
        <walk from="E7" busStop="stop8B"/>
    </person>
    <person id="B79" depart="0" departPos="221">
        <walk from="E7" busStop="stop8B"/>
    </person>
    <person id="B80" depart="0" departPos="221">
        <walk from="E7" busStop="stop8B"/>
    </person>


    <person id="B81" depart="0" departPos="221">
        <walk from="E8" busStop="stop9B"/>
    </person>
    <person id="B82" depart="0" departPos="221">
        <walk from="E8" busStop="stop9B"/>
    </person>
    <person id="B83" depart="0" departPos="221">
        <walk from="E8" busStop="stop9B"/>
    </person>
    <person id="B84" depart="0" departPos="221">
        <walk from="E8" busStop="stop9B"/>
    </person>
    <person id="B85" depart="0" departPos="221">
        <walk from="E8" busStop="stop9B"/>
    </person>
    <person id="B86" depart="0" departPos="221">
        <walk from="E8" busStop="stop9B"/>
    </person>
    <person id="B87" depart="0" departPos="221">
        <walk from="E8" busStop="stop9B"/>
    </person>
    <person id="B88" depart="0" departPos="221">
        <walk from="E8" busStop="stop9B"/>
    </person>
    <person id="B89" depart="0" departPos="221">
        <walk from="E8" busStop="stop9B"/>
    </person>
    <person id="B90" depart="0" departPos="221">
        <walk from="E8" busStop="stop9B"/>
    </person>


    <person id="B91" depart="0" departPos="221">
        <walk from="9" busStop="stop10"/>
    </person>
    <person id="B92" depart="0" departPos="221">
        <walk from="9" busStop="stop10"/>
    </person>
    <person id="B93" depart="0" departPos="221">
        <walk from="9" busStop="stop10"/>
    </person>
    <person id="B94" depart="0" departPos="221">
        <walk from="9" busStop="stop10"/>
    </person>
    <person id="B95" depart="0" departPos="221">
        <walk from="9" busStop="stop10"/>
    </person>
    <person id="B96" depart="0" departPos="221">
        <walk from="9" busStop="stop10"/>
    </person>
    <person id="B97" depart="0" departPos="221">
        <walk from="9" busStop="stop10"/>
    </person>
    <person id="B98" depart="0" departPos="221">
        <walk from="9" busStop="stop10"/>
    </person>
    <person id="B99" depart="0" departPos="221">
        <walk from="9" busStop="stop10"/>
    </person>
    <person id="B100" depart="0" departPos="221">
        <walk from="9" busStop="stop10"/>
    </person>


    <person id="B101" depart="0" departPos="221">
        <walk from="10" busStop="stop11"/>
    </person>
    <person id="B102" depart="0" departPos="221">
        <walk from="10" busStop="stop11"/>
    </person>
    <person id="B103" depart="0" departPos="221">
        <walk from="10" busStop="stop11"/>
    </person>
    <person id="B104" depart="0" departPos="221">
        <walk from="10" busStop="stop11"/>
    </person>
    <person id="B105" depart="0" departPos="221">
        <walk from="10" busStop="stop11"/>
    </person>
    <person id="B106" depart="0" departPos="221">
        <walk from="10" busStop="stop11"/>
    </person>
    <person id="B107" depart="0" departPos="221">
        <walk from="10" busStop="stop11"/>
    </person>
    <person id="B108" depart="0" departPos="221">
        <walk from="10" busStop="stop11"/>
    </person>
    <person id="B109" depart="0" departPos="221">
        <walk from="10" busStop="stop11"/>
    </person>
    <person id="B110" depart="0" departPos="221">
        <walk from="10" busStop="stop11"/>
    </person>


    <person id="B111" depart="0" departPos="221">
        <walk from="11" busStop="stop12"/>
    </person>
    <person id="B112" depart="0" departPos="221">
        <walk from="11" busStop="stop12"/>
    </person>
    <person id="B113" depart="0" departPos="221">
        <walk from="11" busStop="stop12"/>
    </person>
    <person id="B114" depart="0" departPos="221">
        <walk from="11" busStop="stop12"/>
    </person>
    <person id="B115" depart="0" departPos="221">
        <walk from="11" busStop="stop12"/>
    </person>
    <person id="B116" depart="0" departPos="221">
        <walk from="11" busStop="stop12"/>
    </person>
    <person id="B117" depart="0" departPos="221">
        <walk from="11" busStop="stop12"/>
    </person>
    <person id="B118" depart="0" departPos="221">
        <walk from="11" busStop="stop12"/>
    </person>
    <person id="B119" depart="0" departPos="221">
        <walk from="11" busStop="stop12"/>
    </person>
    <person id="B120" depart="0" departPos="221">
        <walk from="11" busStop="stop12"/>
    </person>







    <!-- - - - - - - - - - - - - - - - - - - - - - - - - - - - - - - - - - - - - - - - -->



    <person id="C1" depart="0" departPos="221">
        <walk from="C0" busStop="stop1C"/>
    </person>
    <person id="C2" depart="0" departPos="221">
        <walk from="C0" busStop="stop1C"/>
    </person>
    <person id="C3" depart="0" departPos="221">
        <walk from="C0" busStop="stop1C"/>
    </person>
    <person id="C4" depart="0" departPos="221">
        <walk from="C0" busStop="stop1C"/>
    </person>
    <person id="C5" depart="0" departPos="221">
        <walk from="C0" busStop="stop1C"/>
    </person>
    <person id="C6" depart="0" departPos="221">
        <walk from="C0" busStop="stop1C"/>
    </person>
    <person id="C7" depart="0" departPos="221">
        <walk from="C0" busStop="stop1C"/>
    </person>
    <person id="C8" depart="0" departPos="221">
        <walk from="C0" busStop="stop1C"/>
    </person>
    <person id="C9" depart="0" departPos="221">
        <walk from="C0" busStop="stop1C"/>
    </person>
    <person id="C10" depart="0" departPos="221">
        <walk from="C0" busStop="stop1C"/>
    </person>


    <person id="C11" depart="0" departPos="221">
        <walk from="C1" busStop="stop2C"/>
    </person>
    <person id="C12" depart="0" departPos="221">
        <walk from="C1" busStop="stop2C"/>
    </person>
    <person id="C13" depart="0" departPos="221">
        <walk from="C1" busStop="stop2C"/>
    </person>
    <person id="C14" depart="0" departPos="221">
        <walk from="C1" busStop="stop2C"/>
    </person>
    <person id="C15" depart="0" departPos="221">
        <walk from="C1" busStop="stop2C"/>
    </person>
    <person id="C16" depart="0" departPos="221">
        <walk from="C1" busStop="stop2C"/>
    </person>
    <person id="C17" depart="0" departPos="221">
        <walk from="C1" busStop="stop2C"/>
    </person>
    <person id="C18" depart="0" departPos="221">
        <walk from="C1" busStop="stop2C"/>
    </person>
    <person id="C19" depart="0" departPos="221">
        <walk from="C1" busStop="stop2C"/>
    </person>
    <person id="C20" depart="0" departPos="221">
        <walk from="C1" busStop="stop2C"/>
    </person>


    <person id="C21" depart="0" departPos="221">
        <walk from="C2" busStop="stop3C"/>
    </person>
    <person id="C22" depart="0" departPos="221">
        <walk from="C2" busStop="stop3C"/>
    </person>
    <person id="C23" depart="0" departPos="221">
        <walk from="C2" busStop="stop3C"/>
    </person>
    <person id="C24" depart="0" departPos="221">
        <walk from="C2" busStop="stop3C"/>
    </person>
    <person id="C25" depart="0" departPos="221">
        <walk from="C2" busStop="stop3C"/>
    </person>
    <person id="C26" depart="0" departPos="221">
        <walk from="C2" busStop="stop3C"/>
    </person>
    <person id="C27" depart="0" departPos="221">
        <walk from="C2" busStop="stop3C"/>
    </person>
    <person id="C28" depart="0" departPos="221">
        <walk from="C2" busStop="stop3C"/>
    </person>
    <person id="C29" depart="0" departPos="221">
        <walk from="C2" busStop="stop3C"/>
    </person>
    <person id="C30" depart="0" departPos="221">
        <walk from="C2" busStop="stop3C"/>
    </person>


    <person id="C31" depart="0" departPos="221">
        <walk from="C3" busStop="stop4C"/>
    </person>
    <person id="C32" depart="0" departPos="221">
        <walk from="C3" busStop="stop4C"/>
    </person>
    <person id="C33" depart="0" departPos="221">
        <walk from="C3" busStop="stop4C"/>
    </person>
    <person id="C34" depart="0" departPos="221">
        <walk from="C3" busStop="stop4C"/>
    </person>
    <person id="C35" depart="0" departPos="221">
        <walk from="C3" busStop="stop4C"/>
    </person>
    <person id="C36" depart="0" departPos="221">
        <walk from="C3" busStop="stop4C"/>
    </person>
    <person id="C37" depart="0" departPos="221">
        <walk from="C3" busStop="stop4C"/>
    </person>
    <person id="C38" depart="0" departPos="221">
        <walk from="C3" busStop="stop4C"/>
    </person>
    <person id="C39" depart="0" departPos="221">
        <walk from="C3" busStop="stop4C"/>
    </person>
    <person id="C40" depart="0" departPos="221">
        <walk from="C3" busStop="stop4C"/>
    </person>


    <person id="C41" depart="0" departPos="221">
        <walk from="C4" busStop="stop5C"/>
    </person>
    <person id="C42" depart="0" departPos="221">
        <walk from="C4" busStop="stop5C"/>
    </person>