<?xml version="1.0" encoding="UTF-8"?>

<!-- generated on 2024-07-16 15:13:54.289714 by randomtrips.py v1_14_1+0000-f654d7b963e
<configuration>
    <end value="3000"/>
    <insertion-density value="56.0"/>
    <net-file value="scenario2/sumo/ring.net.xml"/>
    <route-file value="scenario2/sumo/traffic56.rou.xml"/>
</configuration>
-->

<!-- generated on 2024-07-16 15:13:54 by Eclipse SUMO duarouter Version 1.14.1
<configuration xmlns:xsi="http://www.w3.org/2001/XMLSchema-instance" xsi:noNamespaceSchemaLocation="http://sumo.dlr.de/xsd/duarouterConfiguration.xsd">

    <input>
        <net-file value="scenario2/sumo/ring.net.xml"/>
        <route-files value="trips.trips.xml"/>
    </input>

    <output>
        <output-file value="scenario2/sumo/traffic56.rou.xml"/>
        <alternatives-output value="NUL"/>
    </output>

    <time>
        <begin value="0"/>
        <end value="3000"/>
    </time>

    <report>
        <no-warnings value="true"/>
        <ignore-errors value="true"/>
        <no-step-log value="true"/>
    </report>

</configuration>
-->

<routes xmlns:xsi="http://www.w3.org/2001/XMLSchema-instance" xsi:noNamespaceSchemaLocation="http://sumo.dlr.de/xsd/routes_file.xsd">
    <vehicle id="0" depart="0.00">
        <route edges="E0 E1 E2 E3 E4 E5 E6 E7 E8 9 10 11 0"/>
    </vehicle>
    <vehicle id="1" depart="2.33">
        <route edges="7 8 9 10 11 0 1 2 3 4 5"/>
    </vehicle>
    <vehicle id="2" depart="4.65">
        <route edges="E2 E3 E4 E5 E6 E7 E8 9 10 11 0 1 2 3 E10"/>
    </vehicle>
    <vehicle id="3" depart="6.98">
        <route edges="E6 E7 E8 9 10"/>
    </vehicle>
    <vehicle id="4" depart="9.30">
        <route edges="C10 C11 C0 C1 C2 E3 E4 E5 E6 E7 E8 9 10 11 0 1"/>
    </vehicle>
    <vehicle id="5" depart="11.63">
        <route edges="5 6 7 8 9 10 11 E0 E1 E2 E3 E4 E5 C6"/>
    </vehicle>
    <vehicle id="6" depart="13.96">
        <route edges="0 1 2 3 4"/>
    </vehicle>
    <vehicle id="7" depart="16.28">
        <route edges="E1 E2 E3 E4 E5 C6 C7"/>
    </vehicle>
    <vehicle id="8" depart="18.61">
        <route edges="5 6 7 8 9 10 11 E0 E1 E2 E3 E4 E5 C6 C7 C8 C9"/>
    </vehicle>
    <vehicle id="9" depart="20.93">
        <route edges="E30 C11 C0 C1 C2 E3 E4 E5 E6 E7 E8 9 10 11 0"/>
    </vehicle>
    <vehicle id="10" depart="23.26">
        <route edges="E30 C11 C0 C1 C2 E3 E4 E5 E6 E7 E8 9 10 11 0 1 2 3 E10"/>
    </vehicle>
    <vehicle id="11" depart="25.58">
        <route edges="9 10 11 0 1 2 3"/>
    </vehicle>
    <vehicle id="12" depart="27.91">
        <route edges="E8 9"/>
    </vehicle>
    <vehicle id="13" depart="30.24">
        <route edges="11"/>
    </vehicle>
    <vehicle id="14" depart="32.56">
        <route edges="E4 E5 C6 C7 C8 C9"/>
    </vehicle>
    <vehicle id="15" depart="34.89">
        <route edges="E30 C11 C0 C1 C2 E3 E4 E5 E6 E7 E8 9 E11"/>
    </vehicle>
    <vehicle id="16" depart="37.21">
        <route edges="C7 C8 C9 C10 C11 C0 C1 C2 E3 E4 E5 E6 E7 E8"/>
    </vehicle>
    <vehicle id="17" depart="39.54">
        <route edges="C0 C1 C2 E3 E4 E5 C6 C7"/>
    </vehicle>
    <vehicle id="18" depart="41.87">
        <route edges="E4 E5 E6 E7 E8 9 10 11 E0"/>
    </vehicle>
    <vehicle id="19" depart="44.19">
        <route edges="E5 C6 C7 C8"/>
    </vehicle>
    <vehicle id="20" depart="46.52">
        <route edges="E12 11 0 1"/>
    </vehicle>
    <vehicle id="21" depart="48.84">
        <route edges="5 6 7"/>
    </vehicle>
    <vehicle id="22" depart="51.17">
        <route edges="10 11 0 1 2 3 4 5"/>
    </vehicle>
    <vehicle id="23" depart="53.49">
        <route edges="11 0 1 2 3 4 5 6 7"/>
    </vehicle>
    <vehicle id="24" depart="55.82">
        <route edges="E0 E1 E2 E3 E4 E5 C6 C7 C8 C9 C10 C11 C0"/>
    </vehicle>
    <vehicle id="25" depart="58.15">
        <route edges="C0 C1 C2 E3 E4 E5 E6 E7 E8 9 10 11 0 1 2 3 4 5"/>
    </vehicle>
    <vehicle id="26" depart="60.47">
        <route edges="7 8 9 10 11 E0 E1 E2 E3 E4 E5 E6"/>
    </vehicle>
    <vehicle id="27" depart="62.80">
        <route edges="E1 E2 E3 E4 E5 C6 C7 C8 C9"/>
    </vehicle>
    <vehicle id="28" depart="65.12">
        <route edges="3 4 5 6 7 8 9 E11"/>
    </vehicle>
    <vehicle id="29" depart="67.45">
        <route edges="3 4 5 6 7 8 9 10 11 E0 E1 E2 E3 E4 E5 C6 C7 C8 C9 C10 C11 C0"/>
    </vehicle>
    <vehicle id="30" depart="69.78">
        <route edges="E9 5 6 7 8 9 10 11 E0"/>
    </vehicle>
    <vehicle id="31" depart="72.10">
        <route edges="C7 C8 C9 C10 C11 C0 C1 C2 E3 E4 E5 E6 E7 E8 9 10 11 0 1 2 3 E10"/>
    </vehicle>
    <vehicle id="32" depart="74.43">
        <route edges="E4 E5 E6 E7 E8 9 10 11 E0 E1 E2"/>
    </vehicle>
    <vehicle id="33" depart="76.75">
        <route edges="5 6 7 8 9 10 11 0 1"/>
    </vehicle>
    <vehicle id="34" depart="79.08">
        <route edges="8 9 10 11 0 1 2 3 4 5 6 7"/>
    </vehicle>
    <vehicle id="35" depart="81.40">
        <route edges="5 6 7 8 9 10 11 E0 E1 E2 E3 E4 E5 E6 E7"/>
    </vehicle>
    <vehicle id="36" depart="83.73">
        <route edges="E5 E6 E7 E8 9 10 11 0 1 2 3 4 5 6 7 8"/>
    </vehicle>
    <vehicle id="37" depart="86.06">
        <route edges="E1 E2 E3 E4 E5 C6 C7 C8 C9 C10 C11 C0 C1"/>
    </vehicle>
    <vehicle id="38" depart="88.38">
        <route edges="E7 E8 9 10 11 E0 E1 E2 E3 E4 E5 C6 C7 C8 C9 C10 C11"/>
    </vehicle>
    <vehicle id="39" depart="90.71">
        <route edges="7 8 9 10 11 0 1 2 3 4 5 6"/>
    </vehicle>
    <vehicle id="40" depart="93.03">
        <route edges="C8 C9 C10 C11 C0 C1 C2 E3 E4 E5 E6 E7 E8 9 10 11 0 1 2 3 4 5 6"/>
    </vehicle>
    <vehicle id="41" depart="95.36">
        <route edges="C8 C9 C10 C11 C0 C1 C2 E3 E4 E5"/>
    </vehicle>
    <vehicle id="42" depart="97.69">
        <route edges="C1 C2 E3 E4 E5 E6 E7 E8 9 10 11 0 1 2 3 4 5"/>
    </vehicle>
    <vehicle id="43" depart="100.01">
        <route edges="E9 5 6 7 8 9 10 11 E0 E1 E2 E3 E4 E5 C6"/>
    </vehicle>
    <vehicle id="44" depart="102.34">
        <route edges="11 0 1"/>
    </vehicle>
    <vehicle id="45" depart="104.66">
        <route edges="11 E0"/>
    </vehicle>
    <vehicle id="46" depart="106.99">
        <route edges="E3 E4 E5 C6 C7 C8 C9 C10"/>
    </vehicle>
    <vehicle id="47" depart="109.31">
        <route edges="10 11 E0 E1 E2 E3 E4 E5 C6 C7 C8 C9 C10 C11 C0"/>
    </vehicle>
    <vehicle id="48" depart="111.64">
        <route edges="E9 5 6 7 8 9 10 11 E0 E1 E2 E3 E4 E5 C6"/>
    </vehicle>
    <vehicle id="49" depart="113.97">
        <route edges="E9 5 6 7 8 9 10 11 E0 E1 E2 E3 E4"/>
    </vehicle>
    <vehicle id="50" depart="116.29">
        <route edges="0 1 2 3 4 5 6 7 8 9 E11"/>
    </vehicle>
    <vehicle id="51" depart="118.62">
        <route edges="E12 11 E0 E1 E2 E3 E4 E5 C6 C7"/>
    </vehicle>
    <vehicle id="52" depart="120.94">
        <route edges="7 8 9 10 11 E0"/>
    </vehicle>
    <vehicle id="53" depart="123.27">
        <route edges="11 E0 E1 E2 E3 E4 E5 C6 C7 C8 C9 C10"/>
    </vehicle>
    <vehicle id="54" depart="125.60">
        <route edges="C11 C0 C1 C2 E3 E4 E5 E6 E7"/>
    </vehicle>
    <vehicle id="55" depart="127.92">
        <route edges="E5 E6 E7 E8 9 10 11 0 1 2 3 4 5 6"/>
    </vehicle>
    <vehicle id="56" depart="130.25">
        <route edges="C6 C7 C8 C9 C10 C11 C0 C1 C2 E3 E4 E5 E6 E7 E8 9 10 11 0 1 2 3 4"/>
    </vehicle>
    <vehicle id="57" depart="132.57">
        <route edges="E7 E8 9 10 11 E0 E1 E2 E3 E4"/>
    </vehicle>
    <vehicle id="58" depart="134.90">
        <route edges="8 9 10 11 E0"/>
    </vehicle>
    <vehicle id="59" depart="137.22">
        <route edges="C9 C10 C11 C0 C1 C2 E3 E4 E5 E6 E7 E8 9 10 11 0 1 2 3"/>
    </vehicle>
    <vehicle id="60" depart="139.55">
        <route edges="E2 E3 E4 E5 C6 C7"/>
    </vehicle>
    <vehicle id="61" depart="141.88">
        <route edges="E3 E4 E5 C6 C7"/>
    </vehicle>
    <vehicle id="62" depart="144.20">
        <route edges="0 1 2 3 4 5 6 7 8 9"/>
    </vehicle>
    <vehicle id="63" depart="146.53">
        <route edges="0 1 2 3 4 5 6 7 8 9 10 11 E0 E1 E2 E3 E4 E5 E6"/>
    </vehicle>
    <vehicle id="64" depart="148.85">
        <route edges="E5 E6 E7 E8 9 10 11 E0 E1 E2 E3"/>
    </vehicle>
    <vehicle id="65" depart="151.18">
        <route edges="8 9 10 11 0 1"/>
    </vehicle>
    <vehicle id="66" depart="153.51">
        <route edges="E5 E6 E7"/>
    </vehicle>
    <vehicle id="67" depart="155.83">
        <route edges="10 11 E0 E1 E2 E3 E4 E5 C6 C7 C8 C9 C10 C11 C0 C1 C2"/>
    </vehicle>
    <vehicle id="68" depart="158.16">
        <route edges="10 11 E0 E1 E2 E3 E14"/>
    </vehicle>
    <vehicle id="69" depart="160.48">
        <route edges="E3 E4 E5 E6 E7 E8 9 10 11 0 1 2"/>
    </vehicle>
    <vehicle id="70" depart="162.81">
        <route edges="C2 E3 E4 E5 C6 C7"/>
    </vehicle>
    <vehicle id="71" depart="165.13">
        <route edges="7 8 9 10 11 E0 E1 E2 E3 E4"/>
    </vehicle>
    <vehicle id="72" depart="167.46">
        <route edges="C10 C11 C0 C1 C2 E3 E4 E5 E6 E7 E8 9 10 11 0 1 2 3 4 5"/>
    </vehicle>
    <vehicle id="73" depart="169.79">
        <route edges="C7 C8 C9 C10 C11 C0 C1 C2 E3 E4 E5 E6 E7 E8 9 E11"/>
    </vehicle>
    <vehicle id="74" depart="172.11">
        <route edges="4 5 6 7 8"/>
    </vehicle>
    <vehicle id="75" depart="174.44">
        <route edges="E9 5 6 7 8 9 10 11 E0 E1"/>
    </vehicle>
    <vehicle id="76" depart="176.76">
        <route edges="C10 C11 C0 C1 C2 E3 E4 E5 C6"/>
    </vehicle>
    <vehicle id="77" depart="179.09">
        <route edges="2 3 4 5"/>
    </vehicle>
    <vehicle id="78" depart="181.42">
        <route edges="9 10 11 E0 E1 E2 E3 E4 E5 C6 C7 C8 C9"/>
    </vehicle>
    <vehicle id="79" depart="183.74">
        <route edges="5"/>
    </vehicle>
    <vehicle id="80" depart="186.07">
        <route edges="10 11 E0"/>
    </vehicle>
    <vehicle id="81" depart="188.39">
        <route edges="5 6 7 8 9 10 11 E0 E1 E2 E3 E4 E5"/>
    </vehicle>
    <vehicle id="82" depart="190.72">
        <route edges="E5 E6 E7 E8 9 10"/>
    </vehicle>
    <vehicle id="83" depart="193.04">
        <route edges="6 7 8 9 10 11 E0 E1"/>
    </vehicle>
    <vehicle id="84" depart="195.37">
        <route edges="5 6 7 8 9 10 11 0 1 2"/>
    </vehicle>
    <vehicle id="85" depart="197.70">
        <route edges="E7 E8 9 10 11 E0 E1 E2 E3 E4 E5 C6 C7 C8"/>
    </vehicle>
    <vehicle id="86" depart="200.02">
        <route edges="C2 E3 E4 E5 E6 E7 E8 9 10 11 E0 E1 E2"/>
    </vehicle>
    <vehicle id="87" depart="202.35">
        <route edges="E30 C11 C0 C1 C2 E3 E4 E5 E6 E7 E8 9 10 11 0 1 2 3 4"/>
    </vehicle>
    <vehicle id="88" depart="204.67">
        <route edges="11 E0 E1 E2 E3 E4 E5 C6 C7 C8 C9 C10"/>
    </vehicle>
    <vehicle id="89" depart="207.00">
        <route edges="C10 C11"/>
    </vehicle>
    <vehicle id="90" depart="209.33">
        <route edges="E13 E5 E6 E7 E8 9 10 11 E0 E1"/>
    </vehicle>
    <vehicle id="91" depart="211.65">
        <route edges="E9 5 6 7 8 9 10 11"/>
    </vehicle>
    <vehicle id="92" depart="213.98">
        <route edges="C1 C2 E3 E4 E5 E6 E7 E8 9"/>
    </vehicle>
    <vehicle id="93" depart="216.30">
        <route edges="E5 E6 E7 E8 9 10 11 0 1 2 3 4 5 6"/>
    </vehicle>
    <vehicle id="94" depart="218.63">
        <route edges="4 5 6 7 8 9 10 11 E0 E1 E2 E3 E4 E5 C6 C7 C8 C9 C10 C11"/>
    </vehicle>
    <vehicle id="95" depart="220.95">
        <route edges="C10 C11 C0 C1 C2 E3 E4 E5 E6 E7 E8 9 10 11 0 1 2 3 4 5 6 7"/>
    </vehicle>
    <vehicle id="96" depart="223.28">
        <route edges="6 7 8 9 10 11 E0 E1 E2 E3 E4 E5 E6"/>
    </vehicle>
    <vehicle id="97" depart="225.61">
        <route edges="C11 C0 C1 C2 E3 E4"/>
    </vehicle>
    <vehicle id="98" depart="227.93">
        <route edges="C7 C8 C9 C10 C11 C0 C1 C2 E3 E4 E5 E6 E7 E8 9 10 11 0 1"/>
    </vehicle>
    <vehicle id="99" depart="230.26">
        <route edges="E9 5 6 7 8 9 10 11 E0 E1 E2 E3"/>
    </vehicle>
    <vehicle id="100" depart="232.58">
        <route edges="E8 9 10 11 E0 E1 E2 E3 E4 E5 E6"/>
    </vehicle>
    <vehicle id="101" depart="234.91">
        <route edges="E4 E5 E6 E7 E8 9 10 11 0 1 2 3"/>
    </vehicle>
    <vehicle id="102" depart="237.24">
        <route edges="C2 E3 E4 E5 E6 E7 E8 9 10 11 0 1 2 3 4 5"/>
    </vehicle>
    <vehicle id="103" depart="239.56">
        <route edges="C1 C2 E3 E4 E5 E6 E7 E8 9 10 11 0 1"/>
    </vehicle>
    <vehicle id="104" depart="241.89">
        <route edges="C0 C1 C2 E3 E4 E5 E6 E7 E8"/>
    </vehicle>
    <vehicle id="105" depart="244.21">
        <route edges="7 8 9 10 11 E0 E1 E2"/>
    </vehicle>
    <vehicle id="106" depart="246.54">
        <route edges="C11 C0 C1 C2 E3 E4 E5 C6 C7 C8 C9 C10"/>
    </vehicle>
    <vehicle id="107" depart="248.87">
        <route edges="E8"/>
    </vehicle>
    <vehicle id="108" depart="251.19">
        <route edges="C7 C8 C9 C10 C11 C0 C1 C2 E3 E4 E5 E6 E7 E8 9 E11"/>
    </vehicle>
    <vehicle id="109" depart="253.52">
        <route edges="3 4 5 6 7 8"/>
    </vehicle>
    <vehicle id="110" depart="255.84">
        <route edges="E8 9 10 11 E0 E1 E2 E3 E4 E5 C6 C7 C8"/>
    </vehicle>
    <vehicle id="111" depart="258.17">
        <route edges="C7 C8 C9 C10 C11 C0 C1 C2 E3 E14"/>
    </vehicle>
    <vehicle id="112" depart="260.49">
        <route edges="1 2 3 4 5 6 7 8 9 10 11 E0 E1 E2 E3 E4 E5 C6 C7 C8"/>
    </vehicle>
    <vehicle id="113" depart="262.82">
        <route edges="C6 C7 C8 C9 C10 C11 C0 C1 C2 E3"/>
    </vehicle>
    <vehicle id="114" depart="265.15">
        <route edges="3 4 5 6 7 8 9 10 11 E0 E1 E2 E3 E4 E5 E6 E7"/>
    </vehicle>
    <vehicle id="115" depart="267.47">
        <route edges="10 11 0 1 2 3 4"/>
    </vehicle>
    <vehicle id="116" depart="269.80">
        <route edges="C9 C10 C11 C0 C1 C2 E3 E4 E5 E6 E7 E8 9 10 11 E0 E1"/>
    </vehicle>
    <vehicle id="117" depart="272.12">
        <route edges="5 6 7 8 9 10 11 0 1 2"/>
    </vehicle>
    <vehicle id="118" depart="274.45">
        <route edges="E6 E7 E8 9 10 11 0 1 2 3 4 5 6"/>
    </vehicle>
    <vehicle id="119" depart="276.78">
        <route edges="C9 C10 C11 C0 C1 C2 E3 E4 E5 E6 E7 E8 9 10 11 E0"/>
    </vehicle>
    <vehicle id="120" depart="279.10">
        <route edges="C10 C11 C0 C1 C2 E3 E4 E5 C6 C7 C8"/>
    </vehicle>
    <vehicle id="121" depart="281.43">
        <route edges="C6 C7 C8 C9 C10 C11 C0 C1 C2 E3 E4 E5 E6"/>
    </vehicle>
    <vehicle id="122" depart="283.75">
        <route edges="4 5 6 7 8 9 E11"/>
    </vehicle>
    <vehicle id="123" depart="286.08">
        <route edges="6 7 8 9 10 11 E0 E1 E2 E3 E4 E5 C6 C7 C8 C9 C10 C11 C0 C1"/>
    </vehicle>
    <vehicle id="124" depart="288.40">
        <route edges="E1 E2 E3 E4 E5 E6 E7 E8 9 10 11 0 1 2 3 4 5 6 7 8"/>
    </vehicle>
    <vehicle id="125" depart="290.73">
        <route edges="8 9 10 11 E0 E1 E2 E3 E14"/>
    </vehicle>
    <vehicle id="126" depart="293.06">
        <route edges="10 11 E0 E1 E2 E3 E4 E5 C6 C7 C8 C9 C10 C11"/>
    </vehicle>
    <vehicle id="127" depart="295.38">
        <route edges="E9 5 6 7 8 9 10 11 E0 E1 E2 E3 E4 E5 E6 E7 E8"/>
    </vehicle>
    <vehicle id="128" depart="297.71">
        <route edges="10 11 0 1 2 3 4 5"/>
    </vehicle>
    <vehicle id="129" depart="300.03">
        <route edges="7 8 9 10 11 E0 E1 E2 E3 E4 E5 E6"/>
    </vehicle>
    <vehicle id="130" depart="302.36">
        <route edges="E5 E6 E7 E8 9 10 11 E0 E1 E2 E3 E4"/>
    </vehicle>
    <vehicle id="131" depart="304.69">
        <route edges="C0 C1 C2 E3 E4 E5 E6 E7 E8 9 10 11 0 1 2 3"/>
    </vehicle>
    <vehicle id="132" depart="307.01">
        <route edges="E4 E5 E6 E7 E8 9 10 11 0 1 2 3 E10"/>
    </vehicle>
    <vehicle id="133" depart="309.34">
        <route edges="C9 C10 C11 C0 C1 C2 E3 E4 E5 E6 E7 E8"/>
    </vehicle>
    <vehicle id="134" depart="311.66">
        <route edges="E1 E2 E3 E4 E5 E6 E7 E8 9 10 11 0"/>
    </vehicle>
    <vehicle id="135" depart="313.99">
        <route edges="E30 C11 C0 C1 C2 E3 E4 E5 E6 E7 E8 9 10 11 0 1 2 3 4 5 6 7 8"/>
    </vehicle>
    <vehicle id="136" depart="316.31">
        <route edges="E1 E2 E3 E4 E5 E6"/>
    </vehicle>
    <vehicle id="137" depart="318.64">
        <route edges="2 3 4 5 6 7 8 9 10 11"/>
    </vehicle>
    <vehicle id="138" depart="320.97">
        <route edges="11 E0 E1 E2 E3 E4 E5 C6 C7"/>
    </vehicle>
    <vehicle id="139" depart="323.29">
        <route edges="7 8 9 10 11 E0 E1 E2 E3 E4 E5 C6 C7 C8 C9"/>
    </vehicle>
    <vehicle id="140" depart="325.62">
        <route edges="E13 E5 E6 E7 E8 9 10 11 0 1 2 3 4"/>
    </vehicle>
    <vehicle id="141" depart="327.94">
        <route edges="E0 E1 E2 E3 E4 E5 E6 E7 E8 9 10 11 0 1 2 3 4 5 6"/>
    </vehicle>
    <vehicle id="142" depart="330.27">
        <route edges="C2 E3 E4 E5"/>
    </vehicle>
    <vehicle id="143" depart="332.60">
        <route edges="E4 E5 E6 E7 E8 9 10 11"/>
    </vehicle>
    <vehicle id="144" depart="334.92">
        <route edges="C10 C11 C0 C1 C2 E3 E4 E5 E6 E7 E8 9 10 11 0 1 2 3 4 5 6 7"/>
    </vehicle>
    <vehicle id="145" depart="337.25">
        <route edges="0 1 2 3 4 5 6 7 8 9 10 11 E0 E1 E2"/>
    </vehicle>
    <vehicle id="146" depart="339.57">
        <route edges="E0 E1 E2 E3 E4 E5 E6 E7 E8 9 10 11 0 1 2 3 4 5 6"/>
    </vehicle>
    <vehicle id="147" depart="341.90">
        <route edges="E2 E3 E4 E5 C6 C7"/>
    </vehicle>
    <vehicle id="148" depart="344.22">
        <route edges="C10 C11 C0 C1 C2 E3 E4 E5 E6 E7 E8 9 10 11 0"/>
    </vehicle>
    <vehicle id="149" depart="346.55">
        <route edges="10 11 E0 E1 E2 E3 E4 E5"/>
    </vehicle>
    <vehicle id="150" depart="348.88">
        <route edges="E6 E7 E8 9 10 11 E0 E1 E2 E3 E4 E5 C6 C7"/>
    </vehicle>
    <vehicle id="151" depart="351.20">
        <route edges="E4 E5 C6 C7 C8"/>
    </vehicle>
    <vehicle id="152" depart="353.53">
        <route edges="3 4 5 6 7 8 9 10 11 0 1 2"/>
    </vehicle>
    <vehicle id="153" depart="355.85">
        <route edges="8 9 10 11 E0 E1 E2 E3 E4 E5"/>
    </vehicle>
    <vehicle id="154" depart="358.18">
        <route edges="E30 C11 C0 C1 C2 E3 E4"/>
    </vehicle>
    <vehicle id="155" depart="360.51">
        <route edges="E6 E7 E8 9 10 11 0 1 2 3 4 5"/>
    </vehicle>
    <vehicle id="156" depart="362.83">
        <route edges="6 7 8 9 10 11"/>
    </vehicle>
    <vehicle id="157" depart="365.16">
        <route edges="E3 E4 E5"/>
    </vehicle>
    <vehicle id="158" depart="367.48">
        <route edges="C1 C2 E3 E4 E5 E6 E7 E8 9 10 11 E0"/>
    </vehicle>
    <vehicle id="159" depart="369.81">
        <route edges="3 4 5 6 7 8 9 10 11 E0 E1 E2 E3 E4 E5 E6"/>
    </vehicle>
    <vehicle id="160" depart="372.13">
        <route edges="E5 E6 E7 E8"/>
    </vehicle>
    <vehicle id="161" depart="374.46">
        <route edges="E30 C11 C0 C1 C2 E3 E4"/>
    </vehicle>
    <vehicle id="162" depart="376.79">
        <route edges="0 1 2 3 4 5 6 7 8 9 10 11 E0 E1 E2 E3 E14"/>
    </vehicle>
    <vehicle id="163" depart="379.11">
        <route edges="9 10 11 E0 E1 E2 E3 E4 E5 E6"/>
    </vehicle>
    <vehicle id="164" depart="381.44">
        <route edges="E30 C11 C0 C1 C2 E3 E4"/>
    </vehicle>
    <vehicle id="165" depart="383.76">
        <route edges="E30 C11 C0 C1 C2 E3 E4 E5 E6 E7 E8 9 10 11 0 1 2 3 4 5 6 7"/>
    </vehicle>
    <vehicle id="166" depart="386.09">
        <route edges="E3 E4 E5 E6 E7 E8 9 10 11"/>
    </vehicle>
    <vehicle id="167" depart="388.42">
        <route edges="E5 E6 E7 E8 9 10 11 E0 E1 E2 E3 E4"/>
    </vehicle>
    <vehicle id="168" depart="390.74">
        <route edges="5 6 7 8 9 10 11 E0 E1 E2 E3 E4 E5 C6 C7 C8 C9 E29"/>
    </vehicle>
    <vehicle id="169" depart="393.07">
        <route edges="C11 C0 C1 C2 E3 E4 E5 E6 E7 E8 9 10 11 0 1 2 3 4 5 6 7 8"/>
    </vehicle>
    <vehicle id="170" depart="395.39">
        <route edges="E30 C11 C0 C1 C2 E3 E4 E5 E6 E7 E8 9 10 11 0 1 2 3 4 5"/>
    </vehicle>
    <vehicle id="171" depart="397.72">
        <route edges="0 1 2 3 4"/>
    </vehicle>
    <vehicle id="172" depart="400.04">
        <route edges="9 10 11 E0 E1 E2 E3 E4"/>
    </vehicle>
    <vehicle id="173" depart="402.37">
        <route edges="E8 9 10 11 0 1 2 3 4 5 6 7"/>
    </vehicle>
    <vehicle id="174" depart="404.70">
        <route edges="E0 E1 E2 E3 E4 E5 C6 C7 C8 C9 C10 C11 C0 C1"/>
    </vehicle>
    <vehicle id="175" depart="407.02">
        <route edges="E9 5 6 7 8 9 10 11 E0 E1 E2 E3 E4 E5 C6 C7"/>
    </vehicle>
    <vehicle id="176" depart="409.35">
        <route edges="E7 E8 9 10 11"/>
    </vehicle>
    <vehicle id="177" depart="411.67">
        <route edges="E8 9 10 11 0 1 2 3 4"/>
    </vehicle>
    <vehicle id="178" depart="414.00">
        <route edges="E8 9 10 11 0 1 2 3 4 5 6 7"/>
    </vehicle>
    <vehicle id="179" depart="416.33">
        <route edges="11 E0 E1 E2 E3 E4 E5 C6 C7 C8 C9 C10"/>
    </vehicle>
    <vehicle id="180" depart="418.65">
        <route edges="E13 E5 E6 E7 E8 9 10 11 0 1 2 3 4 5 6 7 8"/>
    </vehicle>
    <vehicle id="181" depart="420.98">
        <route edges="C9 C10 C11 C0 C1 C2 E3 E4 E5 C6"/>
    </vehicle>
    <vehicle id="182" depart="423.30">
        <route edges="C1 C2 E3 E4 E5 C6 C7 C8"/>
    </vehicle>
    <vehicle id="183" depart="425.63">
        <route edges="6 7 8 9 E11"/>
    </vehicle>
    <vehicle id="184" depart="427.95">
        <route edges="0 1 2 3 4 5 6 7 8 9 10 11 E0 E1 E2 E3 E4 E5 E6"/>
    </vehicle>
    <vehicle id="185" depart="430.28">
        <route edges="C7 C8 C9 C10 C11 C0 C1 C2 E3 E4 E5 E6 E7 E8 9 E11"/>
    </vehicle>
    <vehicle id="186" depart="432.61">
        <route edges="E2 E3 E4 E5 E6 E7 E8 9 10 11 E0 E1"/>
    </vehicle>
    <vehicle id="187" depart="434.93">
        <route edges="C0 C1 C2 E3 E4 E5 E6 E7 E8 9 10"/>
    </vehicle>
    <vehicle id="188" depart="437.26">
        <route edges="E1 E2 E3 E4 E5 E6 E7 E8 9"/>
    </vehicle>
    <vehicle id="189" depart="439.58">
        <route edges="8 9 10 11 E0 E1 E2 E3"/>
    </vehicle>
    <vehicle id="190" depart="441.91">
        <route edges="E13 E5 E6 E7 E8 9 10 11 0 1 2 3 4 5 6 7 8"/>
    </vehicle>
    <vehicle id="191" depart="444.24">
        <route edges="8 9 10 11 E0 E1 E2 E3 E4 E5 C6 C7 C8 C9 C10 C11 C0 C1"/>
    </vehicle>
    <vehicle id="192" depart="446.56">
        <route edges="C1 C2 E3 E4 E5 E6 E7 E8 9 10 11 0 1 2 3 4 5 6 7 8"/>
    </vehicle>
    <vehicle id="193" depart="448.89">
        <route edges="2 3 4 5 6 7 8 9 10 11 E0 E1 E2 E3 E4 E5 C6 C7 C8 C9 C10"/>
    </vehicle>
    <vehicle id="194" depart="451.21">
        <route edges="E7 E8 9 10 11 0 1 2 3 E10"/>
    </vehicle>
    <vehicle id="195" depart="453.54">
        <route edges="E6 E7 E8 9 10 11 E0 E1 E2 E3 E4 E5 C6 C7 C8 C9"/>
    </vehicle>
    <vehicle id="196" depart="455.87">
        <route edges="8 9 10 11 E0 E1 E2 E3 E4 E5 C6 C7"/>
    </vehicle>
    <vehicle id="197" depart="458.19">
        <route edges="0 1 2 3 4 5 6 7"/>
    </vehicle>
    <vehicle id="198" depart="460.52">
        <route edges="C10 C11 C0 C1 C2 E3 E4 E5 C6 C7 C8"/>
    </vehicle>
    <vehicle id="199" depart="462.84">
        <route edges="E1 E2 E3 E4 E5 C6 C7 C8 C9 C10 C11"/>
    </vehicle>
    <vehicle id="200" depart="465.17">
        <route edges="C11 C0 C1 C2 E3 E4 E5 E6 E7 E8 9 10 11 0 1 2 3 4 5"/>
    </vehicle>
    <vehicle id="201" depart="467.49">
        <route edges="C2 E3 E4 E5"/>
    </vehicle>
    <vehicle id="202" depart="469.82">
        <route edges="E30 C11 C0 C1 C2 E3 E4 E5 E6 E7 E8 9 10 11 0 1 2 3"/>
    </vehicle>
    <vehicle id="203" depart="472.15">
        <route edges="10 11 E0 E1 E2 E3 E4 E5 C6"/>
    </vehicle>
    <vehicle id="204" depart="474.47">
        <route edges="E0 E1 E2 E3 E4 E5 E6 E7 E8 9"/>
    </vehicle>
    <vehicle id="205" depart="476.80">
        <route edges="E30 C11 C0 C1 C2 E3 E14"/>
    </vehicle>
    <vehicle id="206" depart="479.12">
        <route edges="E1 E2 E3 E4 E5 E6 E7 E8 9 10 11 0 1 2 3 4 5"/>
    </vehicle>
    <vehicle id="207" depart="481.45">
        <route edges="4 5 6 7 8 9 10 11 0"/>
    </vehicle>
    <vehicle id="208" depart="483.78">
        <route edges="6 7 8 9 10 11 E0 E1 E2 E3 E4 E5 C6 C7 C8 C9 C10 C11 C0 C1 C2"/>
    </vehicle>
    <vehicle id="209" depart="486.10">
        <route edges="E4 E5 E6 E7 E8 9 10"/>
    </vehicle>
    <vehicle id="210" depart="488.43">
        <route edges="C10 C11 C0 C1 C2 E3 E4 E5 E6 E7 E8 9 10 11 E0"/>
    </vehicle>
    <vehicle id="211" depart="490.75">
        <route edges="4 5 6 7 8 9 10 11 0 1 2 3 E10"/>
    </vehicle>
    <vehicle id="212" depart="493.08">
        <route edges="C2 E3 E4 E5 E6 E7 E8 9 10 11 0 1 2 3 4 5 6"/>
    </vehicle>
    <vehicle id="213" depart="495.40">
        <route edges="E1 E2 E3 E4 E5 E6 E7 E8 9 10 11 0"/>
    </vehicle>
    <vehicle id="214" depart="497.73">
        <route edges="E2"/>
    </vehicle>
    <vehicle id="215" depart="500.06">
        <route edges="11 E0 E1 E2 E3 E4 E5 C6 C7 C8 C9 C10"/>
    </vehicle>
    <vehicle id="216" depart="502.38">
        <route edges="3 4 5 6 7 8 9 10 11 E0 E1 E2 E3 E4 E5 E6 E7"/>
    </vehicle>
    <vehicle id="217" depart="504.71">
        <route edges="C6 C7 C8 C9 C10 C11 C0 C1 C2 E3 E4 E5 E6 E7 E8 9 10 11 0 1"/>
    </vehicle>
    <vehicle id="218" depart="507.03">
        <route edges="6 7 8 9 10 11 E0 E1 E2 E3"/>
    </vehicle>
    <vehicle id="219" depart="509.36">
        <route edges="C11 C0 C1 C2 E3 E4 E5 C6 C7 C8 C9 E29"/>
    </vehicle>
    <vehicle id="220" depart="511.69">
        <route edges="E1 E2 E3 E4 E5 E6 E7 E8"/>
    </vehicle>
    <vehicle id="221" depart="514.01">
        <route edges="C9 C10 C11 C0 C1 C2 E3 E4 E5 E6 E7"/>
    </vehicle>
    <vehicle id="222" depart="516.34">
        <route edges="E6 E7 E8 9 10 11 E0 E1 E2 E3 E4 E5 C6 C7 C8 C9"/>
    </vehicle>
    <vehicle id="223" depart="518.66">
        <route edges="E13 E5 C6"/>
    </vehicle>
    <vehicle id="224" depart="520.99">
        <route edges="E4 E5 C6 C7"/>
    </vehicle>
    <vehicle id="225" depart="523.31">
        <route edges="E6 E7 E8 9 10 11 E0 E1 E2 E3 E14"/>
    </vehicle>
    <vehicle id="226" depart="525.64">
        <route edges="C2 E3 E4 E5 E6 E7 E8 9 10 11 0 1 2 3 4 5 6"/>
    </vehicle>
    <vehicle id="227" depart="527.97">
        <route edges="6 7 8 9 10 11 E0"/>
    </vehicle>
    <vehicle id="228" depart="530.29">
        <route edges="E3 E4 E5 C6"/>
    </vehicle>
    <vehicle id="229" depart="532.62">
        <route edges="E0 E1 E2 E3 E4 E5 E6 E7 E8 9 10 11 0 1 2 3 4 5 6 7"/>
    </vehicle>
    <vehicle id="230" depart="534.94">
        <route edges="10 11 0 1 2 3 4 5 6 7"/>
    </vehicle>
    <vehicle id="231" depart="537.27">
        <route edges="7 8"/>
    </vehicle>
    <vehicle id="232" depart="539.60">
        <route edges="C7 C8 C9 C10 C11 C0 C1 C2 E3 E4 E5 E6 E7 E8 9 10 11 0 1 2"/>
    </vehicle>
    <vehicle id="233" depart="541.92">
        <route edges="5 6 7 8 9 10 11 0 1 2 3 E10"/>
    </vehicle>
    <vehicle id="234" depart="544.25">
        <route edges="E13 E5 E6 E7 E8 9 10"/>
    </vehicle>
    <vehicle id="235" depart="546.57">
        <route edges="C1 C2 E3 E4 E5 C6 C7"/>
    </vehicle>
    <vehicle id="236" depart="548.90">
        <route edges="C10 C11 C0 C1 C2 E3 E4 E5 E6 E7 E8 9 10 11 0 1 2 3 4 5"/>
    </vehicle>
    <vehicle id="237" depart="551.22">
        <route edges="C10 C11 C0 C1 C2 E3 E4 E5"/>
    </vehicle>
    <vehicle id="238" depart="553.55">
        <route edges="C8 C9 C10 C11 C0 C1 C2 E3 E4 E5 E6 E7 E8 9 10 11 0 1 2 3 E10"/>
    </vehicle>
    <vehicle id="239" depart="555.88">
        <route edges="E5 E6 E7 E8 9 10 11 E0 E1 E2"/>
    </vehicle>
    <vehicle id="240" depart="558.20">
        <route edges="C0 C1 C2 E3 E4 E5 E6 E7 E8 9 10 11 0"/>
    </vehicle>
    <vehicle id="241" depart="560.53">
        <route edges="9 10 11 E0 E1 E2 E3 E14"/>
    </vehicle>
    <vehicle id="242" depart="562.85">
        <route edges="E5 E6 E7"/>
    </vehicle>
    <vehicle id="243" depart="565.18">
        <route edges="C10 C11 C0 C1 C2 E3 E14"/>
    </vehicle>
    <vehicle id="244" depart="567.51">
        <route edges="C7 C8 C9"/>
    </vehicle>
    <vehicle id="245" depart="569.83">
        <route edges="5"/>
    </vehicle>
    <vehicle id="246" depart="572.16">
        <route edges="C10 C11 C0 C1 C2 E3 E4 E5 E6 E7 E8 9 10 11 0"/>
    </vehicle>
    <vehicle id="247" depart="574.48">
        <route edges="9 10 11 0 1 2 3 E10"/>
    </vehicle>
    <vehicle id="248" depart="576.81">
        <route edges="C1 C2 E3 E4 E5 E6 E7 E8 9 10 11 0 1 2 3"/>
    </vehicle>
    <vehicle id="249" depart="579.13">
        <route edges="C11 C0 C1 C2 E3 E4 E5 E6 E7 E8 9 10 11 0 1 2"/>
    </vehicle>
    <vehicle id="250" depart="581.46">
        <route edges="E0 E1 E2 E3 E4 E5 E6 E7 E8 9 10 11 0"/>
    </vehicle>
    <vehicle id="251" depart="583.79">
        <route edges="C1 C2 E3 E4 E5 C6 C7 C8"/>
    </vehicle>
    <vehicle id="252" depart="586.11">
        <route edges="0 1 2 3 4 5 6 7 8 9 10 11 E0"/>
    </vehicle>
    <vehicle id="253" depart="588.44">
        <route edges="2 3 4 5 6 7 8 9 10 11 E0 E1 E2 E3 E4 E5 C6 C7 C8 C9 C10 C11"/>
    </vehicle>
    <vehicle id="254" depart="590.76">
        <route edges="1 2 3 4 5 6 7 8 9 10 11 E0 E1 E2 E3 E4 E5 C6 C7 C8 C9 C10 C11 C0"/>
    </vehicle>
    <vehicle id="255" depart="593.09">
        <route edges="5 6 7 8 9"/>
    </vehicle>
    <vehicle id="256" depart="595.42">
        <route edges="E2 E3 E4 E5 C6 C7 C8 C9 C10 C11 C0"/>
    </vehicle>
    <vehicle id="257" depart="597.74">
        <route edges="E2 E3"/>
    </vehicle>
    <vehicle id="258" depart="600.07">
        <route edges="6 7 8 9 10"/>
    </vehicle>
    <vehicle id="259" depart="602.39">
        <route edges="0 1 2 3 4 5 6 7 8 9 10 11 E0 E1 E2 E3 E4 E5 C6 C7"/>
    </vehicle>
    <vehicle id="260" depart="604.72">
        <route edges="E9 5 6 7 8 9"/>
    </vehicle>