<additional>
    <vType id='traffic'
</additional>