<?xml version="1.0" encoding="UTF-8"?>

<!-- generated on 2024-08-02 12:10:12.347518 by randomtrips.py v1_14_1+0000-f654d7b963e
<configuration>
    <end value="3000"/>
    <insertion-density value="56.0"/>
    <net-file value="scenario3/sumo/ring.net.xml"/>
    <route-file value="scenario3/sumo/traffic56.rou.xml"/>
</configuration>
-->

<!-- generated on 2024-08-02 12:10:12 by Eclipse SUMO duarouter Version 1.14.1
<configuration xmlns:xsi="http://www.w3.org/2001/XMLSchema-instance" xsi:noNamespaceSchemaLocation="http://sumo.dlr.de/xsd/duarouterConfiguration.xsd">

    <input>
        <net-file value="scenario3/sumo/ring.net.xml"/>
        <route-files value="trips.trips.xml"/>
    </input>

    <output>
        <output-file value="scenario3/sumo/traffic56.rou.xml"/>
        <alternatives-output value="NUL"/>
    </output>

    <time>
        <begin value="0"/>
        <end value="3000"/>
    </time>

    <report>
        <no-warnings value="true"/>
        <ignore-errors value="true"/>
        <no-step-log value="true"/>
    </report>

</configuration>
-->

<routes xmlns:xsi="http://www.w3.org/2001/XMLSchema-instance" xsi:noNamespaceSchemaLocation="http://sumo.dlr.de/xsd/routes_file.xsd">
    <vehicle id="0" depart="0.00">
        <route edges="E0 E1 E2 E3 E4 E5 E6 E7 E8 9 10 11 0"/>
    </vehicle>
    <vehicle id="1" depart="2.24">
        <route edges="7 8 9 10 11 0 1 2 3 4 5"/>
    </vehicle>
    <vehicle id="2" depart="4.47">
        <route edges="E2 E3 E4 E5 E6 E7 E8 9 10 11 0 1 2 3 E10"/>
    </vehicle>
    <vehicle id="3" depart="6.71">
        <route edges="E6 E7 E8 9 10"/>
    </vehicle>
    <vehicle id="4" depart="8.95">
        <route edges="C2 C3 C4 C5 C6 C7 C8 9 10 11 0 1"/>
    </vehicle>
    <vehicle id="5" depart="11.18">
        <route edges="5 6 7 8 9 10 11 C0 C1 C2 C3 C4 C5"/>
    </vehicle>
    <vehicle id="6" depart="13.42">
        <route edges="0 1 2 3 4"/>
    </vehicle>
    <vehicle id="7" depart="15.66">
        <route edges="E1 E2 E3 E4 E5 E6 E7 E8 9 10 11 C0 C1 C2 C3 C4 C5 C6"/>
    </vehicle>
    <vehicle id="8" depart="17.90">
        <route edges="5 6 7 8 9 10 11 C0 C1 C2 C3 C4 C5 C6 C7 C8"/>
    </vehicle>
    <vehicle id="9" depart="20.13">
        <route edges="E3 E4 E5 E6 E7 E8 9 10 11 0"/>
    </vehicle>
    <vehicle id="10" depart="22.37">
        <route edges="E3 E4 E5 E6 E7 E8 9 10 11 0 1 2 3 E10"/>
    </vehicle>
    <vehicle id="11" depart="24.61">
        <route edges="9 10 11 0 1 2 3"/>
    </vehicle>
    <vehicle id="12" depart="26.84">
        <route edges="E8 9"/>
    </vehicle>
    <vehicle id="13" depart="29.08">
        <route edges="11"/>
    </vehicle>
    <vehicle id="14" depart="31.32">
        <route edges="E4 E5 E6 E7 E8 9 10 11 C0 C1 C2 C3 C4 C5 C6 C7 C8"/>
    </vehicle>
    <vehicle id="15" depart="33.55">
        <route edges="E3 E4 E5 E6 E7 E8 9 E11"/>
    </vehicle>
    <vehicle id="16" depart="35.79">
        <route edges="C6 C7 C8 9 10 11 E0 E1 E2 E3 E4 E5 E6 E7 E8"/>
    </vehicle>
    <vehicle id="17" depart="38.03">
        <route edges="C0 C1 C2 C3 C4 C5 C6"/>
    </vehicle>
    <vehicle id="18" depart="40.26">
        <route edges="E4 E5 E6 E7 E8 9 10 11 E0"/>
    </vehicle>
    <vehicle id="19" depart="42.50">
        <route edges="E5 E6 E7 E8 9 10 11 C0 C1 C2 C3 C4 C5 C6 C7"/>
    </vehicle>
    <vehicle id="20" depart="44.74">
        <route edges="E12 11 0 1"/>
    </vehicle>
    <vehicle id="21" depart="46.97">
        <route edges="5 6 7"/>
    </vehicle>
    <vehicle id="22" depart="49.21">
        <route edges="10 11 0 1 2 3 4 5"/>
    </vehicle>
    <vehicle id="23" depart="51.45">
        <route edges="11 0 1 2 3 4 5 6 7"/>
    </vehicle>
    <vehicle id="24" depart="53.69">
        <route edges="E0 E1 E2 E3 E4 E5 E6 E7 E8 9 10 11 C0"/>
    </vehicle>
    <vehicle id="25" depart="55.92">
        <route edges="C0 C1 C2 C3 C4 C5 C6 C7 C8 9 10 11 0 1 2 3 4 5"/>
    </vehicle>
    <vehicle id="26" depart="58.16">
        <route edges="7 8 9 10 11 E0 E1 E2 E3 E4 E5 E6"/>
    </vehicle>
    <vehicle id="27" depart="60.40">
        <route edges="E1 E2 E3 E4 E5 E6 E7 E8 9 10 11 C0 C1 C2 C3 C4 C5 C6 C7 C8"/>
    </vehicle>
    <vehicle id="28" depart="62.63">
        <route edges="3 4 5 6 7 8 9 E11"/>
    </vehicle>
    <vehicle id="29" depart="64.87">
        <route edges="3 4 5 6 7 8 9 10 11 C0"/>
    </vehicle>
    <vehicle id="30" depart="67.11">
        <route edges="E9 5 6 7 8 9 10 11 E0"/>
    </vehicle>
    <vehicle id="31" depart="69.34">
        <route edges="C6 C7 C8 9 10 11 0 1 2 3 E10"/>
    </vehicle>
    <vehicle id="32" depart="71.58">
        <route edges="E4 E5 E6 E7 E8 9 10 11 E0 E1 E2"/>
    </vehicle>
    <vehicle id="33" depart="73.82">
        <route edges="5 6 7 8 9 10 11 0 1"/>
    </vehicle>
    <vehicle id="34" depart="76.05">
        <route edges="8 9 10 11 0 1 2 3 4 5 6 7"/>
    </vehicle>
    <vehicle id="35" depart="78.29">
        <route edges="5 6 7 8 9 10 11 E0 E1 E2 E3 E4 E5 E6 E7"/>
    </vehicle>
    <vehicle id="36" depart="80.53">
        <route edges="E5 E6 E7 E8 9 10 11 0 1 2 3 4 5 6 7 8"/>
    </vehicle>
    <vehicle id="37" depart="82.77">
        <route edges="E1 E2 E3 E4 E5 E6 E7 E8 9 10 11 C0 C1"/>
    </vehicle>
    <vehicle id="38" depart="85.00">
        <route edges="E7 E8 9 10 11 C0 C1 C2 C3"/>
    </vehicle>
    <vehicle id="39" depart="87.24">
        <route edges="7 8 9 10 11 0 1 2 3 4 5 6"/>
    </vehicle>
    <vehicle id="40" depart="89.48">
        <route edges="C7 C8 9 10 11 0 1 2 3 4 5 6"/>
    </vehicle>
    <vehicle id="41" depart="91.71">
        <route edges="C7 C8 9 10 11 E0 E1 E2 E3 E4 E5"/>
    </vehicle>
    <vehicle id="42" depart="93.95">
        <route edges="C1 C2 C3 C4 C5 C6 C7 C8 9 10 11 0 1 2 3 4 5"/>
    </vehicle>
    <vehicle id="43" depart="96.19">
        <route edges="E9 5 6 7 8 9 10 11 C0 C1 C2 C3 C4 C5"/>
    </vehicle>
    <vehicle id="44" depart="98.42">
        <route edges="11 0 1"/>
    </vehicle>
    <vehicle id="45" depart="100.66">
        <route edges="11 E0"/>
    </vehicle>
    <vehicle id="46" depart="102.90">
        <route edges="E24 C5 C6 C7 C8 9 10 11 C0 C1 C2"/>
    </vehicle>
    <vehicle id="47" depart="105.13">
        <route edges="10 11 C0"/>
    </vehicle>
    <vehicle id="48" depart="107.37">
        <route edges="E9 5 6 7 8 9 10 11 C0 C1 C2 C3 C4 C5"/>
    </vehicle>
    <vehicle id="49" depart="109.61">
        <route edges="E9 5 6 7 8 9 10 11 E0 E1 E2 E3 E4"/>
    </vehicle>
    <vehicle id="50" depart="111.85">
        <route edges="0 1 2 3 4 5 6 7 8 9 E11"/>
    </vehicle>
    <vehicle id="51" depart="114.08">
        <route edges="E12 11 C0 C1 C2 C3 C4 C5 C6"/>
    </vehicle>
    <vehicle id="52" depart="116.32">
        <route edges="7 8 9 10 11 E0"/>
    </vehicle>
    <vehicle id="53" depart="118.56">
        <route edges="11 C0 C1 C2"/>
    </vehicle>
    <vehicle id="54" depart="120.79">
        <route edges="C3 C4 C5 C6 C7 C8 9 10 11 E0 E1 E2 E3 E4 E5 E6 E7"/>
    </vehicle>
    <vehicle id="55" depart="123.03">
        <route edges="E5 E6 E7 E8 9 10 11 0 1 2 3 4 5 6"/>
    </vehicle>
    <vehicle id="56" depart="125.27">
        <route edges="C5 C6 C7 C8 9 10 11 0 1 2 3 4"/>
    </vehicle>
    <vehicle id="57" depart="127.50">
        <route edges="E7 E8 9 10 11 E0 E1 E2 E3 E4"/>
    </vehicle>
    <vehicle id="58" depart="129.74">
        <route edges="8 9 10 11 E0"/>
    </vehicle>
    <vehicle id="59" depart="131.98">
        <route edges="C8 9 10 11 0 1 2 3"/>
    </vehicle>
    <vehicle id="60" depart="134.21">
        <route edges="E2 E3 E4 E5 E6 E7 E8 9 10 11 C0 C1 C2 C3 C4 C5 C6"/>
    </vehicle>
    <vehicle id="61" depart="136.45">
        <route edges="E24 C5 C6"/>
    </vehicle>
    <vehicle id="62" depart="138.69">
        <route edges="0 1 2 3 4 5 6 7 8 9"/>
    </vehicle>
    <vehicle id="63" depart="140.92">
        <route edges="0 1 2 3 4 5 6 7 8 9 10 11 E0 E1 E2 E3 E4 E5 E6"/>
    </vehicle>
    <vehicle id="64" depart="143.16">
        <route edges="E5 E6 E7 E8 9 10 11 E0 E1 E2 E3"/>
    </vehicle>
    <vehicle id="65" depart="145.40">
        <route edges="8 9 10 11 0 1"/>
    </vehicle>
    <vehicle id="66" depart="147.64">
        <route edges="E5 E6 E7"/>
    </vehicle>
    <vehicle id="67" depart="149.87">
        <route edges="10 11 C0 C1 C2 C3 C4"/>
    </vehicle>
    <vehicle id="68" depart="152.11">
        <route edges="10 11 E0 E1 E2 E3 E14"/>
    </vehicle>
    <vehicle id="69" depart="154.35">
        <route edges="E24 C5 C6 C7 C8 9 10 11 0 1 2"/>
    </vehicle>
    <vehicle id="70" depart="156.58">
        <route edges="C4 C5 C6"/>
    </vehicle>
    <vehicle id="71" depart="158.82">
        <route edges="7 8 9 10 11 E0 E1 E2 E3 E4"/>
    </vehicle>
    <vehicle id="72" depart="161.06">
        <route edges="C2 C3 C4 C5 C6 C7 C8 9 10 11 0 1 2 3 4 5"/>
    </vehicle>
    <vehicle id="73" depart="163.29">
        <route edges="C6 C7 C8 9 E11"/>
    </vehicle>
    <vehicle id="74" depart="165.53">
        <route edges="4 5 6 7 8"/>
    </vehicle>
    <vehicle id="75" depart="167.77">
        <route edges="E9 5 6 7 8 9 10 11 E0 E1"/>
    </vehicle>
    <vehicle id="76" depart="170.00">
        <route edges="C2 C3 C4 C5"/>
    </vehicle>
    <vehicle id="77" depart="172.24">
        <route edges="2 3 4 5"/>
    </vehicle>
    <vehicle id="78" depart="174.48">
        <route edges="9 10 11 C0 C1 C2 C3 C4 C5 C6 C7 C8"/>
    </vehicle>
    <vehicle id="79" depart="176.72">
        <route edges="5"/>
    </vehicle>
    <vehicle id="80" depart="178.95">
        <route edges="10 11 E0"/>
    </vehicle>
    <vehicle id="81" depart="181.19">
        <route edges="5 6 7 8 9 10 11 E0 E1 E2 E3 E4 E5"/>
    </vehicle>
    <vehicle id="82" depart="183.43">
        <route edges="E5 E6 E7 E8 9 10"/>
    </vehicle>
    <vehicle id="83" depart="185.66">
        <route edges="6 7 8 9 10 11 E0 E1"/>
    </vehicle>
    <vehicle id="84" depart="187.90">
        <route edges="5 6 7 8 9 10 11 0 1 2"/>
    </vehicle>
    <vehicle id="85" depart="190.14">
        <route edges="E7 E8 9 10 11 C0 C1 C2 C3 C4 C5 C6 C7"/>
    </vehicle>
    <vehicle id="86" depart="192.37">
        <route edges="C4 C5 C6 C7 C8 9 10 11 E0 E1 E2"/>
    </vehicle>
    <vehicle id="87" depart="194.61">
        <route edges="E3 E4 E5 E6 E7 E8 9 10 11 0 1 2 3 4"/>
    </vehicle>
    <vehicle id="88" depart="196.85">
        <route edges="11 C0 C1 C2"/>
    </vehicle>
    <vehicle id="89" depart="199.08">
        <route edges="C2 C3"/>
    </vehicle>
    <vehicle id="90" depart="201.32">
        <route edges="E13 E5 E6 E7 E8 9 10 11 E0 E1"/>
    </vehicle>
    <vehicle id="91" depart="203.56">
        <route edges="E9 5 6 7 8 9 10 11"/>
    </vehicle>
    <vehicle id="92" depart="205.80">
        <route edges="C1 C2 C3 C4 C5 C6 C7 C8 9"/>
    </vehicle>
    <vehicle id="93" depart="208.03">
        <route edges="E5 E6 E7 E8 9 10 11 0 1 2 3 4 5 6"/>
    </vehicle>
    <vehicle id="94" depart="210.27">
        <route edges="4 5 6 7 8 9 10 11 C0 C1 C2 C3"/>
    </vehicle>
    <vehicle id="95" depart="212.51">
        <route edges="C2 C3 C4 C5 C6 C7 C8 9 10 11 0 1 2 3 4 5 6 7"/>
    </vehicle>
    <vehicle id="96" depart="214.74">
        <route edges="6 7 8 9 10 11 E0 E1 E2 E3 E4 E5 E6"/>
    </vehicle>
    <vehicle id="97" depart="216.98">
        <route edges="C3 C4 C5 C6 C7 C8 9 10 11 E0 E1 E2 E3 E4"/>
    </vehicle>
    <vehicle id="98" depart="219.22">
        <route edges="C6 C7 C8 9 10 11 0 1"/>
    </vehicle>
    <vehicle id="99" depart="221.45">
        <route edges="E9 5 6 7 8 9 10 11 E0 E1 E2 E3"/>
    </vehicle>
    <vehicle id="100" depart="223.69">
        <route edges="E8 9 10 11 E0 E1 E2 E3 E4 E5 E6"/>
    </vehicle>
    <vehicle id="101" depart="225.93">
        <route edges="E4 E5 E6 E7 E8 9 10 11 0 1 2 3"/>
    </vehicle>
    <vehicle id="102" depart="228.16">
        <route edges="C4 C5 C6 C7 C8 9 10 11 0 1 2 3 4 5"/>
    </vehicle>
    <vehicle id="103" depart="230.40">
        <route edges="C1 C2 C3 C4 C5 C6 C7 C8 9 10 11 0 1"/>
    </vehicle>
    <vehicle id="104" depart="232.64">
        <route edges="C0 C1 C2 C3 C4 C5 C6 C7 C8 9 10 11 E0 E1 E2 E3 E4 E5 E6 E7 E8"/>
    </vehicle>
    <vehicle id="105" depart="234.87">
        <route edges="7 8 9 10 11 E0 E1 E2"/>
    </vehicle>
    <vehicle id="106" depart="237.11">
        <route edges="C3 C4 C5 C6 C7 C8 9 10 11 C0 C1 C2"/>
    </vehicle>
    <vehicle id="107" depart="239.35">
        <route edges="E8"/>
    </vehicle>
    <vehicle id="108" depart="241.59">
        <route edges="C6 C7 C8 9 E11"/>
    </vehicle>
    <vehicle id="109" depart="243.82">
        <route edges="3 4 5 6 7 8"/>
    </vehicle>
    <vehicle id="110" depart="246.06">
        <route edges="E8 9 10 11 C0 C1 C2 C3 C4 C5 C6 C7"/>
    </vehicle>
    <vehicle id="111" depart="248.30">
        <route edges="C6 C7 C8 9 10 11 E0 E1 E2 E3 E14"/>
    </vehicle>
    <vehicle id="112" depart="250.53">
        <route edges="1 2 3 4 5 6 7 8 9 10 11 C0 C1 C2 C3 C4 C5 C6 C7"/>
    </vehicle>
    <vehicle id="113" depart="252.77">
        <route edges="C5 C6 C7 C8 9 10 11 E0 E1 E2 E3"/>
    </vehicle>
    <vehicle id="114" depart="255.01">
        <route edges="3 4 5 6 7 8 9 10 11 E0 E1 E2 E3 E4 E5 E6 E7"/>
    </vehicle>
    <vehicle id="115" depart="257.24">
        <route edges="10 11 0 1 2 3 4"/>
    </vehicle>
    <vehicle id="116" depart="259.48">
        <route edges="C8 9 10 11 E0 E1"/>
    </vehicle>
    <vehicle id="117" depart="261.72">
        <route edges="5 6 7 8 9 10 11 0 1 2"/>
    </vehicle>
    <vehicle id="118" depart="263.95">
        <route edges="E6 E7 E8 9 10 11 0 1 2 3 4 5 6"/>
    </vehicle>
    <vehicle id="119" depart="266.19">
        <route edges="C8 9 10 11 E0"/>
    </vehicle>
    <vehicle id="120" depart="268.43">
        <route edges="C2 C3 C4 C5 C6 C7"/>
    </vehicle>
    <vehicle id="121" depart="270.67">
        <route edges="C5 C6 C7 C8 9 10 11 E0 E1 E2 E3 E4 E5 E6"/>
    </vehicle>
    <vehicle id="122" depart="272.90">
        <route edges="4 5 6 7 8 9 E11"/>
    </vehicle>
    <vehicle id="123" depart="275.14">
        <route edges="6 7 8 9 10 11 C0 C1"/>
    </vehicle>
    <vehicle id="124" depart="277.38">
        <route edges="E1 E2 E3 E4 E5 E6 E7 E8 9 10 11 0 1 2 3 4 5 6 7 8"/>
    </vehicle>
    <vehicle id="125" depart="279.61">
        <route edges="8 9 10 11 E0 E1 E2 E3 E14"/>
    </vehicle>
    <vehicle id="126" depart="281.85">
        <route edges="10 11 C0 C1 C2 C3"/>
    </vehicle>
    <vehicle id="127" depart="284.09">
        <route edges="E9 5 6 7 8 9 10 11 E0 E1 E2 E3 E4 E5 E6 E7 E8"/>
    </vehicle>
    <vehicle id="128" depart="286.32">
        <route edges="10 11 0 1 2 3 4 5"/>
    </vehicle>
    <vehicle id="129" depart="288.56">
        <route edges="7 8 9 10 11 E0 E1 E2 E3 E4 E5 E6"/>
    </vehicle>
    <vehicle id="130" depart="290.80">
        <route edges="E5 E6 E7 E8 9 10 11 E0 E1 E2 E3 E4"/>
    </vehicle>
    <vehicle id="131" depart="293.03">
        <route edges="C0 C1 C2 C3 C4 C5 C6 C7 C8 9 10 11 0 1 2 3"/>
    </vehicle>
    <vehicle id="132" depart="295.27">
        <route edges="E4 E5 E6 E7 E8 9 10 11 0 1 2 3 E10"/>
    </vehicle>
    <vehicle id="133" depart="297.51">
        <route edges="C8 9 10 11 E0 E1 E2 E3 E4 E5 E6 E7 E8"/>
    </vehicle>
    <vehicle id="134" depart="299.74">
        <route edges="E1 E2 E3 E4 E5 E6 E7 E8 9 10 11 0"/>
    </vehicle>
    <vehicle id="135" depart="301.98">
        <route edges="E3 E4 E5 E6 E7 E8 9 10 11 0 1 2 3 4 5 6 7 8"/>
    </vehicle>
    <vehicle id="136" depart="304.22">
        <route edges="E1 E2 E3 E4 E5 E6"/>
    </vehicle>
    <vehicle id="137" depart="306.46">
        <route edges="2 3 4 5 6 7 8 9 10 11"/>
    </vehicle>
    <vehicle id="138" depart="308.69">
        <route edges="11 C0 C1 C2 C3 C4 C5 C6"/>
    </vehicle>
    <vehicle id="139" depart="310.93">
        <route edges="7 8 9 10 11 C0 C1 C2 C3 C4 C5 C6 C7 C8"/>
    </vehicle>
    <vehicle id="140" depart="313.17">
        <route edges="E13 E5 E6 E7 E8 9 10 11 0 1 2 3 4"/>
    </vehicle>
    <vehicle id="141" depart="315.40">
        <route edges="E0 E1 E2 E3 E4 E5 E6 E7 E8 9 10 11 0 1 2 3 4 5 6"/>
    </vehicle>
    <vehicle id="142" depart="317.64">
        <route edges="C4 C5 C6 C7 C8 9 10 11 E0 E1 E2 E3 E4 E5"/>
    </vehicle>
    <vehicle id="143" depart="319.88">
        <route edges="E4 E5 E6 E7 E8 9 10 11"/>
    </vehicle>
    <vehicle id="144" depart="322.11">
        <route edges="C2 C3 C4 C5 C6 C7 C8 9 10 11 0 1 2 3 4 5 6 7"/>
    </vehicle>
    <vehicle id="145" depart="324.35">
        <route edges="0 1 2 3 4 5 6 7 8 9 10 11 E0 E1 E2"/>
    </vehicle>
    <vehicle id="146" depart="326.59">
        <route edges="E0 E1 E2 E3 E4 E5 E6 E7 E8 9 10 11 0 1 2 3 4 5 6"/>
    </vehicle>
    <vehicle id="147" depart="328.82">
        <route edges="E2 E3 E4 E5 E6 E7 E8 9 10 11 C0 C1 C2 C3 C4 C5 C6"/>
    </vehicle>
    <vehicle id="148" depart="331.06">
        <route edges="C2 C3 C4 C5 C6 C7 C8 9 10 11 0"/>
    </vehicle>
    <vehicle id="149" depart="333.30">
        <route edges="10 11 E0 E1 E2 E3 E4 E5"/>
    </vehicle>
    <vehicle id="150" depart="335.54">
        <route edges="E6 E7 E8 9 10 11 C0 C1 C2 C3 C4 C5 C6"/>
    </vehicle>
    <vehicle id="151" depart="337.77">
        <route edges="E4 E5 E6 E7 E8 9 10 11 C0 C1 C2 C3 C4 C5 C6 C7"/>
    </vehicle>
    <vehicle id="152" depart="340.01">
        <route edges="3 4 5 6 7 8 9 10 11 0 1 2"/>
    </vehicle>
    <vehicle id="153" depart="342.25">
        <route edges="8 9 10 11 E0 E1 E2 E3 E4 E5"/>
    </vehicle>
    <vehicle id="154" depart="344.48">
        <route edges="E3 E4"/>
    </vehicle>
    <vehicle id="155" depart="346.72">
        <route edges="E6 E7 E8 9 10 11 0 1 2 3 4 5"/>
    </vehicle>
    <vehicle id="156" depart="348.96">
        <route edges="6 7 8 9 10 11"/>
    </vehicle>
    <vehicle id="157" depart="351.19">
        <route edges="E24 C5 C6 C7 C8 9 10 11 E0 E1 E2 E3 E4 E5"/>
    </vehicle>
    <vehicle id="158" depart="353.43">
        <route edges="C1 C2 C3 C4 C5 C6 C7 C8 9 10 11 E0"/>
    </vehicle>
    <vehicle id="159" depart="355.67">
        <route edges="3 4 5 6 7 8 9 10 11 E0 E1 E2 E3 E4 E5 E6"/>
    </vehicle>
    <vehicle id="160" depart="357.90">
        <route edges="E5 E6 E7 E8"/>
    </vehicle>
    <vehicle id="161" depart="360.14">
        <route edges="E3 E4"/>
    </vehicle>
    <vehicle id="162" depart="362.38">
        <route edges="0 1 2 3 4 5 6 7 8 9 10 11 E0 E1 E2 E3 E14"/>
    </vehicle>
    <vehicle id="163" depart="364.62">
        <route edges="9 10 11 E0 E1 E2 E3 E4 E5 E6"/>
    </vehicle>
    <vehicle id="164" depart="366.85">
        <route edges="E3 E4"/>
    </vehicle>
    <vehicle id="165" depart="369.09">
        <route edges="E3 E4 E5 E6 E7 E8 9 10 11 0 1 2 3 4 5 6 7"/>
    </vehicle>
    <vehicle id="166" depart="371.33">
        <route edges="E24 C5 C6 C7 C8 9 10 11"/>
    </vehicle>
    <vehicle id="167" depart="373.56">
        <route edges="E5 E6 E7 E8 9 10 11 E0 E1 E2 E3 E4"/>
    </vehicle>
    <vehicle id="168" depart="375.80">
        <route edges="5 6 7 8 9 10 11 C0 C1 C2 C3 E25"/>
    </vehicle>
    <vehicle id="169" depart="378.04">
        <route edges="C3 C4 C5 C6 C7 C8 9 10 11 0 1 2 3 4 5 6 7 8"/>
    </vehicle>
    <vehicle id="170" depart="380.27">
        <route edges="E3 E4 E5 E6 E7 E8 9 10 11 0 1 2 3 4 5"/>
    </vehicle>
    <vehicle id="171" depart="382.51">
        <route edges="0 1 2 3 4"/>
    </vehicle>
    <vehicle id="172" depart="384.75">
        <route edges="9 10 11 E0 E1 E2 E3 E4"/>
    </vehicle>
    <vehicle id="173" depart="386.98">
        <route edges="E8 9 10 11 0 1 2 3 4 5 6 7"/>
    </vehicle>
    <vehicle id="174" depart="389.22">
        <route edges="E0 E1 E2 E3 E4 E5 E6 E7 E8 9 10 11 C0 C1"/>
    </vehicle>
    <vehicle id="175" depart="391.46">
        <route edges="E9 5 6 7 8 9 10 11 C0 C1 C2 C3 C4 C5 C6"/>
    </vehicle>
    <vehicle id="176" depart="393.69">
        <route edges="E7 E8 9 10 11"/>
    </vehicle>
    <vehicle id="177" depart="395.93">
        <route edges="E8 9 10 11 0 1 2 3 4"/>
    </vehicle>
    <vehicle id="178" depart="398.17">
        <route edges="E8 9 10 11 0 1 2 3 4 5 6 7"/>
    </vehicle>
    <vehicle id="179" depart="400.41">
        <route edges="11 C0 C1 C2"/>
    </vehicle>
    <vehicle id="180" depart="402.64">
        <route edges="E13 E5 E6 E7 E8 9 10 11 0 1 2 3 4 5 6 7 8"/>
    </vehicle>
    <vehicle id="181" depart="404.88">
        <route edges="C8 9 10 11 C0 C1 C2 C3 C4 C5"/>
    </vehicle>
    <vehicle id="182" depart="407.12">
        <route edges="C1 C2 C3 C4 C5 C6 C7"/>
    </vehicle>
    <vehicle id="183" depart="409.35">
        <route edges="6 7 8 9 E11"/>
    </vehicle>
    <vehicle id="184" depart="411.59">
        <route edges="0 1 2 3 4 5 6 7 8 9 10 11 E0 E1 E2 E3 E4 E5 E6"/>
    </vehicle>
    <vehicle id="185" depart="413.83">
        <route edges="C6 C7 C8 9 E11"/>
    </vehicle>
    <vehicle id="186" depart="416.06">
        <route edges="E2 E3 E4 E5 E6 E7 E8 9 10 11 E0 E1"/>
    </vehicle>
    <vehicle id="187" depart="418.30">
        <route edges="C0 C1 C2 C3 C4 C5 C6 C7 C8 9 10"/>
    </vehicle>
    <vehicle id="188" depart="420.54">
        <route edges="E1 E2 E3 E4 E5 E6 E7 E8 9"/>
    </vehicle>
    <vehicle id="189" depart="422.77">
        <route edges="8 9 10 11 E0 E1 E2 E3"/>
    </vehicle>
    <vehicle id="190" depart="425.01">
        <route edges="E13 E5 E6 E7 E8 9 10 11 0 1 2 3 4 5 6 7 8"/>
    </vehicle>
    <vehicle id="191" depart="427.25">
        <route edges="8 9 10 11 C0 C1"/>
    </vehicle>
    <vehicle id="192" depart="429.49">
        <route edges="C1 C2 C3 C4 C5 C6 C7 C8 9 10 11 0 1 2 3 4 5 6 7 8"/>
    </vehicle>
    <vehicle id="193" depart="431.72">
        <route edges="2 3 4 5 6 7 8 9 10 11 C0 C1 C2"/>
    </vehicle>
    <vehicle id="194" depart="433.96">
        <route edges="E7 E8 9 10 11 0 1 2 3 E10"/>
    </vehicle>
    <vehicle id="195" depart="436.20">
        <route edges="E6 E7 E8 9 10 11 C0 C1 C2 C3 C4 C5 C6 C7 C8"/>
    </vehicle>
    <vehicle id="196" depart="438.43">
        <route edges="8 9 10 11 C0 C1 C2 C3 C4 C5 C6"/>
    </vehicle>
    <vehicle id="197" depart="440.67">
        <route edges="0 1 2 3 4 5 6 7"/>
    </vehicle>
    <vehicle id="198" depart="442.91">
        <route edges="C2 C3 C4 C5 C6 C7"/>
    </vehicle>
    <vehicle id="199" depart="445.14">
        <route edges="E1 E2 E3 E4 E5 E6 E7 E8 9 10 11 C0 C1 C2 C3"/>
    </vehicle>
    <vehicle id="200" depart="447.38">
        <route edges="C3 C4 C5 C6 C7 C8 9 10 11 0 1 2 3 4 5"/>
    </vehicle>
    <vehicle id="201" depart="449.62">
        <route edges="C4 C5 C6 C7 C8 9 10 11 E0 E1 E2 E3 E4 E5"/>
    </vehicle>
    <vehicle id="202" depart="451.85">
        <route edges="E3 E4 E5 E6 E7 E8 9 10 11 0 1 2 3"/>
    </vehicle>
    <vehicle id="203" depart="454.09">
        <route edges="10 11 C0 C1 C2 C3 C4 C5"/>
    </vehicle>
    <vehicle id="204" depart="456.33">
        <route edges="E0 E1 E2 E3 E4 E5 E6 E7 E8 9"/>
    </vehicle>
    <vehicle id="205" depart="458.57">
        <route edges="E3 E14"/>
    </vehicle>
    <vehicle id="206" depart="460.80">
        <route edges="E1 E2 E3 E4 E5 E6 E7 E8 9 10 11 0 1 2 3 4 5"/>
    </vehicle>
    <vehicle id="207" depart="463.04">
        <route edges="4 5 6 7 8 9 10 11 0"/>
    </vehicle>
    <vehicle id="208" depart="465.28">
        <route edges="6 7 8 9 10 11 C0 C1 C2 C3 C4"/>
    </vehicle>
    <vehicle id="209" depart="467.51">
        <route edges="E4 E5 E6 E7 E8 9 10"/>
    </vehicle>
    <vehicle id="210" depart="469.75">
        <route edges="C2 C3 C4 C5 C6 C7 C8 9 10 11 E0"/>
    </vehicle>
    <vehicle id="211" depart="471.99">
        <route edges="4 5 6 7 8 9 10 11 0 1 2 3 E10"/>
    </vehicle>
    <vehicle id="212" depart="474.22">
        <route edges="C4 C5 C6 C7 C8 9 10 11 0 1 2 3 4 5 6"/>
    </vehicle>
    <vehicle id="213" depart="476.46">
        <route edges="E1 E2 E3 E4 E5 E6 E7 E8 9 10 11 0"/>
    </vehicle>
    <vehicle id="214" depart="478.70">
        <route edges="E2"/>
    </vehicle>
    <vehicle id="215" depart="480.93">
        <route edges="11 C0 C1 C2"/>
    </vehicle>
    <vehicle id="216" depart="483.17">
        <route edges="3 4 5 6 7 8 9 10 11 E0 E1 E2 E3 E4 E5 E6 E7"/>
    </vehicle>
    <vehicle id="217" depart="485.41">
        <route edges="C5 C6 C7 C8 9 10 11 0 1"/>
    </vehicle>
    <vehicle id="218" depart="487.64">
        <route edges="6 7 8 9 10 11 E0 E1 E2 E3"/>
    </vehicle>
    <vehicle id="219" depart="489.88">
        <route edges="C3 E25"/>
    </vehicle>
    <vehicle id="220" depart="492.12">
        <route edges="E1 E2 E3 E4 E5 E6 E7 E8"/>
    </vehicle>
    <vehicle id="221" depart="494.36">
        <route edges="C8 9 10 11 E0 E1 E2 E3 E4 E5 E6 E7"/>
    </vehicle>
    <vehicle id="222" depart="496.59">
        <route edges="E6 E7 E8 9 10 11 C0 C1 C2 C3 C4 C5 C6 C7 C8"/>
    </vehicle>
    <vehicle id="223" depart="498.83">
        <route edges="E13 E5 E6 E7 E8 9 10 11 C0 C1 C2 C3 C4 C5"/>
    </vehicle>
    <vehicle id="224" depart="501.07">
        <route edges="E4 E5 E6 E7 E8 9 10 11 C0 C1 C2 C3 C4 C5 C6"/>
    </vehicle>
    <vehicle id="225" depart="503.30">
        <route edges="E6 E7 E8 9 10 11 E0 E1 E2 E3 E14"/>
    </vehicle>
    <vehicle id="226" depart="505.54">
        <route edges="C4 C5 C6 C7 C8 9 10 11 0 1 2 3 4 5 6"/>
    </vehicle>
    <vehicle id="227" depart="507.78">
        <route edges="6 7 8 9 10 11 E0"/>
    </vehicle>
    <vehicle id="228" depart="510.01">
        <route edges="E24 C5"/>
    </vehicle>
    <vehicle id="229" depart="512.25">
        <route edges="E0 E1 E2 E3 E4 E5 E6 E7 E8 9 10 11 0 1 2 3 4 5 6 7"/>
    </vehicle>
    <vehicle id="230" depart="514.49">
        <route edges="10 11 0 1 2 3 4 5 6 7"/>
    </vehicle>
    <vehicle id="231" depart="516.72">
        <route edges="7 8"/>
    </vehicle>
    <vehicle id="232" depart="518.96">
        <route edges="C6 C7 C8 9 10 11 0 1 2"/>
    </vehicle>
    <vehicle id="233" depart="521.20">
        <route edges="5 6 7 8 9 10 11 0 1 2 3 E10"/>
    </vehicle>
    <vehicle id="234" depart="523.44">
        <route edges="E13 E5 E6 E7 E8 9 10"/>
    </vehicle>
    <vehicle id="235" depart="525.67">
        <route edges="C1 C2 C3 C4 C5 C6"/>
    </vehicle>
    <vehicle id="236" depart="527.91">
        <route edges="C2 C3 C4 C5 C6 C7 C8 9 10 11 0 1 2 3 4 5"/>
    </vehicle>
    <vehicle id="237" depart="530.15">
        <route edges="C2 C3 C4 C5 C6 C7 C8 9 10 11 E0 E1 E2 E3 E4 E5"/>
    </vehicle>
    <vehicle id="238" depart="532.38">
        <route edges="C7 C8 9 10 11 0 1 2 3 E10"/>
    </vehicle>
    <vehicle id="239" depart="534.62">
        <route edges="E5 E6 E7 E8 9 10 11 E0 E1 E2"/>
    </vehicle>
    <vehicle id="240" depart="536.86">
        <route edges="C0 C1 C2 C3 C4 C5 C6 C7 C8 9 10 11 0"/>
    </vehicle>
    <vehicle id="241" depart="539.09">
        <route edges="9 10 11 E0 E1 E2 E3 E14"/>
    </vehicle>
    <vehicle id="242" depart="541.33">
        <route edges="E5 E6 E7"/>
    </vehicle>
    <vehicle id="243" depart="543.57">
        <route edges="C2 C3 C4 C5 C6 C7 C8 9 10 11 E0 E1 E2 E3 E14"/>
    </vehicle>
    <vehicle id="244" depart="545.80">
        <route edges="C6 C7 C8"/>
    </vehicle>
    <vehicle id="245" depart="548.04">
        <route edges="5"/>
    </vehicle>
    <vehicle id="246" depart="550.28">
        <route edges="C2 C3 C4 C5 C6 C7 C8 9 10 11 0"/>
    </vehicle>
    <vehicle id="247" depart="552.51">
        <route edges="9 10 11 0 1 2 3 E10"/>
    </vehicle>
    <vehicle id="248" depart="554.75">
        <route edges="C1 C2 C3 C4 C5 C6 C7 C8 9 10 11 0 1 2 3"/>
    </vehicle>
    <vehicle id="249" depart="556.99">
        <route edges="C3 C4 C5 C6 C7 C8 9 10 11 0 1 2"/>
    </vehicle>
    <vehicle id="250" depart="559.23">
        <route edges="E0 E1 E2 E3 E4 E5 E6 E7 E8 9 10 11 0"/>
    </vehicle>
    <vehicle id="251" depart="561.46">
        <route edges="C1 C2 C3 C4 C5 C6 C7"/>
    </vehicle>
    <vehicle id="252" depart="563.70">
        <route edges="0 1 2 3 4 5 6 7 8 9 10 11 E0"/>
    </vehicle>
    <vehicle id="253" depart="565.94">
        <route edges="2 3 4 5 6 7 8 9 10 11 C0 C1 C2 C3"/>
    </vehicle>
    <vehicle id="254" depart="568.17">
        <route edges="1 2 3 4 5 6 7 8 9 10 11 C0"/>
    </vehicle>
    <vehicle id="255" depart="570.41">
        <route edges="5 6 7 8 9"/>
    </vehicle>
    <vehicle id="256" depart="572.65">
        <route edges="E2 E3 E4 E5 E6 E7 E8 9 10 11 C0"/>
    </vehicle>
    <vehicle id="257" depart="574.88">
        <route edges="E2 E3"/>
    </vehicle>
    <vehicle id="258" depart="577.12">
        <route edges="6 7 8 9 10"/>
    </vehicle>
    <vehicle id="259" depart="579.36">
        <route edges="0 1 2 3 4 5 6 7 8 9 10 11 C0 C1 C2 C3 C4 C5 C6"/>
    </vehicle>
    <vehicle id="260" depart="581.59">
        <route edges="E9 5 6 7 8 9"/>
    </vehicle>
    <vehicle id="261" depart="583.83">
        <route edges="E1 E2"/>
    </vehicle>
    <vehicle id="262" depart="586.07">
        <route edges="E1 E2 E3 E14"/>
    </vehicle>
    <vehicle id="263" depart="588.31">
        <route edges="E8 9 10 11 0 1 2 3 4"/>
    </vehicle>
    <vehicle id="264" depart="590.54">
        <route edges="0 1 2 3"/>
    </vehicle>
    <vehicle id="265" depart="592.78">
        <route edges="2 3 4 5 6 7 8 9 10 11 E0 E1"/>
    </vehicle>
    <vehicle id="266" depart="595.02">
        <route edges="C7 C8 9 10 11 0 1 2 3 4 5"/>
    </vehicle>
    <vehicle id="267" depart="597.25">
        <route edges="E12 11 E0 E1 E2"/>
    </vehicle>
    <vehicle id="268" depart="599.49">
        <route edges="3 4 5 6 7 8 9 10 11 C0 C1 C2 C3 C4 C5 C6 C7 C8"/>
    </vehicle>
    <vehicle id="269" depart="601.73">
        <route edges="E2 E3 E4 E5 E6 E7 E8 9 10 11"/>
    </vehicle>
    <vehicle id="270" depart="603.96">
        <route edges="E3 E4 E5 E6 E7"/>
    </vehicle>