<?xml version="1.0" encoding="UTF-8"?>

<!-- generated on 2024-07-16 14:00:57.079842 by randomtrips.py v1_14_1+0000-f654d7b963e
<configuration>
    <end value="3000"/>
    <insertion-density value="90.0"/>
    <net-file value="scenario2/sumo/ring.net.xml"/>
    <route-file value="scenario2/sumo/traffic90.rou.xml"/>
</configuration>
-->

<!-- generated on 2024-07-16 14:00:56 by Eclipse SUMO duarouter Version 1.14.1
<configuration xmlns:xsi="http://www.w3.org/2001/XMLSchema-instance" xsi:noNamespaceSchemaLocation="http://sumo.dlr.de/xsd/duarouterConfiguration.xsd">

    <input>
        <net-file value="scenario2/sumo/ring.net.xml"/>
        <route-files value="trips.trips.xml"/>
    </input>

    <output>
        <output-file value="scenario2/sumo/traffic90.rou.xml"/>
        <alternatives-output value="NUL"/>
    </output>

    <time>
        <begin value="0"/>
        <end value="3000"/>
    </time>

    <report>
        <no-warnings value="true"/>
        <ignore-errors value="true"/>
        <no-step-log value="true"/>
    </report>

</configuration>
-->

<routes xmlns:xsi="http://www.w3.org/2001/XMLSchema-instance" xsi:noNamespaceSchemaLocation="http://sumo.dlr.de/xsd/routes_file.xsd">
    <vehicle id="0" depart="0.00">
        <route edges="E0 E1 E2 E3 E4 E5 E6 E7 E8 9 10 11 0"/>
    </vehicle>
    <vehicle id="1" depart="1.45">
        <route edges="7 8 9 10 11 0 1 2 3 4 5"/>
    </vehicle>
    <vehicle id="2" depart="2.89">
        <route edges="E2 E3 E4 E5 E6 E7 E8 9 10 11 0 1 2 3 E10"/>
    </vehicle>
    <vehicle id="3" depart="4.34">
        <route edges="E6 E7 E8 9 10"/>
    </vehicle>
    <vehicle id="4" depart="5.79">
        <route edges="C10 C11 C0 C1 C2 E3 E4 E5 E6 E7 E8 9 10 11 0 1"/>
    </vehicle>
    <vehicle id="5" depart="7.24">
        <route edges="5 6 7 8 9 10 11 E0 E1 E2 E3 E4 E5 C6"/>
    </vehicle>
    <vehicle id="6" depart="8.68">
        <route edges="0 1 2 3 4"/>
    </vehicle>
    <vehicle id="7" depart="10.13">
        <route edges="E1 E2 E3 E4 E5 C6 C7"/>
    </vehicle>
    <vehicle id="8" depart="11.58">
        <route edges="5 6 7 8 9 10 11 E0 E1 E2 E3 E4 E5 C6 C7 C8 C9"/>
    </vehicle>
    <vehicle id="9" depart="13.02">
        <route edges="E30 C11 C0 C1 C2 E3 E4 E5 E6 E7 E8 9 10 11 0"/>
    </vehicle>
    <vehicle id="10" depart="14.47">
        <route edges="E30 C11 C0 C1 C2 E3 E4 E5 E6 E7 E8 9 10 11 0 1 2 3 E10"/>
    </vehicle>
    <vehicle id="11" depart="15.92">
        <route edges="9 10 11 0 1 2 3"/>
    </vehicle>
    <vehicle id="12" depart="17.37">
        <route edges="E8 9"/>
    </vehicle>
    <vehicle id="13" depart="18.81">
        <route edges="11"/>
    </vehicle>
    <vehicle id="14" depart="20.26">
        <route edges="E4 E5 C6 C7 C8 C9"/>
    </vehicle>
    <vehicle id="15" depart="21.71">
        <route edges="E30 C11 C0 C1 C2 E3 E4 E5 E6 E7 E8 9 E11"/>
    </vehicle>
    <vehicle id="16" depart="23.16">
        <route edges="C7 C8 C9 C10 C11 C0 C1 C2 E3 E4 E5 E6 E7 E8"/>
    </vehicle>
    <vehicle id="17" depart="24.60">
        <route edges="C0 C1 C2 E3 E4 E5 C6 C7"/>
    </vehicle>
    <vehicle id="18" depart="26.05">
        <route edges="E4 E5 E6 E7 E8 9 10 11 E0"/>
    </vehicle>
    <vehicle id="19" depart="27.50">
        <route edges="E5 C6 C7 C8"/>
    </vehicle>
    <vehicle id="20" depart="28.94">
        <route edges="E12 11 0 1"/>
    </vehicle>
    <vehicle id="21" depart="30.39">
        <route edges="5 6 7"/>
    </vehicle>
    <vehicle id="22" depart="31.84">
        <route edges="10 11 0 1 2 3 4 5"/>
    </vehicle>
    <vehicle id="23" depart="33.29">
        <route edges="11 0 1 2 3 4 5 6 7"/>
    </vehicle>
    <vehicle id="24" depart="34.73">
        <route edges="E0 E1 E2 E3 E4 E5 C6 C7 C8 C9 C10 C11 C0"/>
    </vehicle>
    <vehicle id="25" depart="36.18">
        <route edges="C0 C1 C2 E3 E4 E5 E6 E7 E8 9 10 11 0 1 2 3 4 5"/>
    </vehicle>
    <vehicle id="26" depart="37.63">
        <route edges="7 8 9 10 11 E0 E1 E2 E3 E4 E5 E6"/>
    </vehicle>
    <vehicle id="27" depart="39.07">
        <route edges="E1 E2 E3 E4 E5 C6 C7 C8 C9"/>
    </vehicle>
    <vehicle id="28" depart="40.52">
        <route edges="3 4 5 6 7 8 9 E11"/>
    </vehicle>
    <vehicle id="29" depart="41.97">
        <route edges="3 4 5 6 7 8 9 10 11 E0 E1 E2 E3 E4 E5 C6 C7 C8 C9 C10 C11 C0"/>
    </vehicle>
    <vehicle id="30" depart="43.42">
        <route edges="E9 5 6 7 8 9 10 11 E0"/>
    </vehicle>
    <vehicle id="31" depart="44.86">
        <route edges="C7 C8 C9 C10 C11 C0 C1 C2 E3 E4 E5 E6 E7 E8 9 10 11 0 1 2 3 E10"/>
    </vehicle>
    <vehicle id="32" depart="46.31">
        <route edges="E4 E5 E6 E7 E8 9 10 11 E0 E1 E2"/>
    </vehicle>
    <vehicle id="33" depart="47.76">
        <route edges="5 6 7 8 9 10 11 0 1"/>
    </vehicle>
    <vehicle id="34" depart="49.20">
        <route edges="8 9 10 11 0 1 2 3 4 5 6 7"/>
    </vehicle>
    <vehicle id="35" depart="50.65">
        <route edges="5 6 7 8 9 10 11 E0 E1 E2 E3 E4 E5 E6 E7"/>
    </vehicle>
    <vehicle id="36" depart="52.10">
        <route edges="E5 E6 E7 E8 9 10 11 0 1 2 3 4 5 6 7 8"/>
    </vehicle>
    <vehicle id="37" depart="53.55">
        <route edges="E1 E2 E3 E4 E5 C6 C7 C8 C9 C10 C11 C0 C1"/>
    </vehicle>
    <vehicle id="38" depart="54.99">
        <route edges="E7 E8 9 10 11 E0 E1 E2 E3 E4 E5 C6 C7 C8 C9 C10 C11"/>
    </vehicle>
    <vehicle id="39" depart="56.44">
        <route edges="7 8 9 10 11 0 1 2 3 4 5 6"/>
    </vehicle>
    <vehicle id="40" depart="57.89">
        <route edges="C8 C9 C10 C11 C0 C1 C2 E3 E4 E5 E6 E7 E8 9 10 11 0 1 2 3 4 5 6"/>
    </vehicle>
    <vehicle id="41" depart="59.33">
        <route edges="C8 C9 C10 C11 C0 C1 C2 E3 E4 E5"/>
    </vehicle>
    <vehicle id="42" depart="60.78">
        <route edges="C1 C2 E3 E4 E5 E6 E7 E8 9 10 11 0 1 2 3 4 5"/>
    </vehicle>
    <vehicle id="43" depart="62.23">
        <route edges="E9 5 6 7 8 9 10 11 E0 E1 E2 E3 E4 E5 C6"/>
    </vehicle>
    <vehicle id="44" depart="63.68">
        <route edges="11 0 1"/>
    </vehicle>
    <vehicle id="45" depart="65.12">
        <route edges="11 E0"/>
    </vehicle>
    <vehicle id="46" depart="66.57">
        <route edges="E3 E4 E5 C6 C7 C8 C9 C10"/>
    </vehicle>
    <vehicle id="47" depart="68.02">
        <route edges="10 11 E0 E1 E2 E3 E4 E5 C6 C7 C8 C9 C10 C11 C0"/>
    </vehicle>
    <vehicle id="48" depart="69.47">
        <route edges="E9 5 6 7 8 9 10 11 E0 E1 E2 E3 E4 E5 C6"/>
    </vehicle>
    <vehicle id="49" depart="70.91">
        <route edges="E9 5 6 7 8 9 10 11 E0 E1 E2 E3 E4"/>
    </vehicle>
    <vehicle id="50" depart="72.36">
        <route edges="0 1 2 3 4 5 6 7 8 9 E11"/>
    </vehicle>
    <vehicle id="51" depart="73.81">
        <route edges="E12 11 E0 E1 E2 E3 E4 E5 C6 C7"/>
    </vehicle>
    <vehicle id="52" depart="75.25">
        <route edges="7 8 9 10 11 E0"/>
    </vehicle>
    <vehicle id="53" depart="76.70">
        <route edges="11 E0 E1 E2 E3 E4 E5 C6 C7 C8 C9 C10"/>
    </vehicle>
    <vehicle id="54" depart="78.15">
        <route edges="C11 C0 C1 C2 E3 E4 E5 E6 E7"/>
    </vehicle>
    <vehicle id="55" depart="79.60">
        <route edges="E5 E6 E7 E8 9 10 11 0 1 2 3 4 5 6"/>
    </vehicle>
    <vehicle id="56" depart="81.04">
        <route edges="C6 C7 C8 C9 C10 C11 C0 C1 C2 E3 E4 E5 E6 E7 E8 9 10 11 0 1 2 3 4"/>
    </vehicle>
    <vehicle id="57" depart="82.49">
        <route edges="E7 E8 9 10 11 E0 E1 E2 E3 E4"/>
    </vehicle>
    <vehicle id="58" depart="83.94">
        <route edges="8 9 10 11 E0"/>
    </vehicle>
    <vehicle id="59" depart="85.38">
        <route edges="C9 C10 C11 C0 C1 C2 E3 E4 E5 E6 E7 E8 9 10 11 0 1 2 3"/>
    </vehicle>
    <vehicle id="60" depart="86.83">
        <route edges="E2 E3 E4 E5 C6 C7"/>
    </vehicle>
    <vehicle id="61" depart="88.28">
        <route edges="E3 E4 E5 C6 C7"/>
    </vehicle>
    <vehicle id="62" depart="89.73">
        <route edges="0 1 2 3 4 5 6 7 8 9"/>
    </vehicle>
    <vehicle id="63" depart="91.17">
        <route edges="0 1 2 3 4 5 6 7 8 9 10 11 E0 E1 E2 E3 E4 E5 E6"/>
    </vehicle>
    <vehicle id="64" depart="92.62">
        <route edges="E5 E6 E7 E8 9 10 11 E0 E1 E2 E3"/>
    </vehicle>
    <vehicle id="65" depart="94.07">
        <route edges="8 9 10 11 0 1"/>
    </vehicle>
    <vehicle id="66" depart="95.51">
        <route edges="E5 E6 E7"/>
    </vehicle>
    <vehicle id="67" depart="96.96">
        <route edges="10 11 E0 E1 E2 E3 E4 E5 C6 C7 C8 C9 C10 C11 C0 C1 C2"/>
    </vehicle>
    <vehicle id="68" depart="98.41">
        <route edges="10 11 E0 E1 E2 E3 E14"/>
    </vehicle>
    <vehicle id="69" depart="99.86">
        <route edges="E3 E4 E5 E6 E7 E8 9 10 11 0 1 2"/>
    </vehicle>
    <vehicle id="70" depart="101.30">
        <route edges="C2 E3 E4 E5 C6 C7"/>
    </vehicle>
    <vehicle id="71" depart="102.75">
        <route edges="7 8 9 10 11 E0 E1 E2 E3 E4"/>
    </vehicle>
    <vehicle id="72" depart="104.20">
        <route edges="C10 C11 C0 C1 C2 E3 E4 E5 E6 E7 E8 9 10 11 0 1 2 3 4 5"/>
    </vehicle>
    <vehicle id="73" depart="105.64">
        <route edges="C7 C8 C9 C10 C11 C0 C1 C2 E3 E4 E5 E6 E7 E8 9 E11"/>
    </vehicle>
    <vehicle id="74" depart="107.09">
        <route edges="4 5 6 7 8"/>
    </vehicle>
    <vehicle id="75" depart="108.54">
        <route edges="E9 5 6 7 8 9 10 11 E0 E1"/>
    </vehicle>
    <vehicle id="76" depart="109.99">
        <route edges="C10 C11 C0 C1 C2 E3 E4 E5 C6"/>
    </vehicle>
    <vehicle id="77" depart="111.43">
        <route edges="2 3 4 5"/>
    </vehicle>
    <vehicle id="78" depart="112.88">
        <route edges="9 10 11 E0 E1 E2 E3 E4 E5 C6 C7 C8 C9"/>
    </vehicle>
    <vehicle id="79" depart="114.33">
        <route edges="5"/>
    </vehicle>
    <vehicle id="80" depart="115.78">
        <route edges="10 11 E0"/>
    </vehicle>
    <vehicle id="81" depart="117.22">
        <route edges="5 6 7 8 9 10 11 E0 E1 E2 E3 E4 E5"/>
    </vehicle>
    <vehicle id="82" depart="118.67">
        <route edges="E5 E6 E7 E8 9 10"/>
    </vehicle>
    <vehicle id="83" depart="120.12">
        <route edges="6 7 8 9 10 11 E0 E1"/>
    </vehicle>
    <vehicle id="84" depart="121.56">
        <route edges="5 6 7 8 9 10 11 0 1 2"/>
    </vehicle>
    <vehicle id="85" depart="123.01">
        <route edges="E7 E8 9 10 11 E0 E1 E2 E3 E4 E5 C6 C7 C8"/>
    </vehicle>
    <vehicle id="86" depart="124.46">
        <route edges="C2 E3 E4 E5 E6 E7 E8 9 10 11 E0 E1 E2"/>
    </vehicle>
    <vehicle id="87" depart="125.91">
        <route edges="E30 C11 C0 C1 C2 E3 E4 E5 E6 E7 E8 9 10 11 0 1 2 3 4"/>
    </vehicle>
    <vehicle id="88" depart="127.35">
        <route edges="11 E0 E1 E2 E3 E4 E5 C6 C7 C8 C9 C10"/>
    </vehicle>
    <vehicle id="89" depart="128.80">
        <route edges="C10 C11"/>
    </vehicle>
    <vehicle id="90" depart="130.25">
        <route edges="E13 E5 E6 E7 E8 9 10 11 E0 E1"/>
    </vehicle>
    <vehicle id="91" depart="131.69">
        <route edges="E9 5 6 7 8 9 10 11"/>
    </vehicle>
    <vehicle id="92" depart="133.14">
        <route edges="C1 C2 E3 E4 E5 E6 E7 E8 9"/>
    </vehicle>
    <vehicle id="93" depart="134.59">
        <route edges="E5 E6 E7 E8 9 10 11 0 1 2 3 4 5 6"/>
    </vehicle>
    <vehicle id="94" depart="136.04">
        <route edges="4 5 6 7 8 9 10 11 E0 E1 E2 E3 E4 E5 C6 C7 C8 C9 C10 C11"/>
    </vehicle>
    <vehicle id="95" depart="137.48">
        <route edges="C10 C11 C0 C1 C2 E3 E4 E5 E6 E7 E8 9 10 11 0 1 2 3 4 5 6 7"/>
    </vehicle>
    <vehicle id="96" depart="138.93">
        <route edges="6 7 8 9 10 11 E0 E1 E2 E3 E4 E5 E6"/>
    </vehicle>
    <vehicle id="97" depart="140.38">
        <route edges="C11 C0 C1 C2 E3 E4"/>
    </vehicle>
    <vehicle id="98" depart="141.82">
        <route edges="C7 C8 C9 C10 C11 C0 C1 C2 E3 E4 E5 E6 E7 E8 9 10 11 0 1"/>
    </vehicle>
    <vehicle id="99" depart="143.27">
        <route edges="E9 5 6 7 8 9 10 11 E0 E1 E2 E3"/>
    </vehicle>
    <vehicle id="100" depart="144.72">
        <route edges="E8 9 10 11 E0 E1 E2 E3 E4 E5 E6"/>
    </vehicle>
    <vehicle id="101" depart="146.17">
        <route edges="E4 E5 E6 E7 E8 9 10 11 0 1 2 3"/>
    </vehicle>
    <vehicle id="102" depart="147.61">
        <route edges="C2 E3 E4 E5 E6 E7 E8 9 10 11 0 1 2 3 4 5"/>
    </vehicle>
    <vehicle id="103" depart="149.06">
        <route edges="C1 C2 E3 E4 E5 E6 E7 E8 9 10 11 0 1"/>
    </vehicle>
    <vehicle id="104" depart="150.51">
        <route edges="C0 C1 C2 E3 E4 E5 E6 E7 E8"/>
    </vehicle>
    <vehicle id="105" depart="151.96">
        <route edges="7 8 9 10 11 E0 E1 E2"/>
    </vehicle>
    <vehicle id="106" depart="153.40">
        <route edges="C11 C0 C1 C2 E3 E4 E5 C6 C7 C8 C9 C10"/>
    </vehicle>
    <vehicle id="107" depart="154.85">
        <route edges="E8"/>
    </vehicle>
    <vehicle id="108" depart="156.30">
        <route edges="C7 C8 C9 C10 C11 C0 C1 C2 E3 E4 E5 E6 E7 E8 9 E11"/>
    </vehicle>
    <vehicle id="109" depart="157.74">
        <route edges="3 4 5 6 7 8"/>
    </vehicle>
    <vehicle id="110" depart="159.19">
        <route edges="E8 9 10 11 E0 E1 E2 E3 E4 E5 C6 C7 C8"/>
    </vehicle>
    <vehicle id="111" depart="160.64">
        <route edges="C7 C8 C9 C10 C11 C0 C1 C2 E3 E14"/>
    </vehicle>
    <vehicle id="112" depart="162.09">
        <route edges="1 2 3 4 5 6 7 8 9 10 11 E0 E1 E2 E3 E4 E5 C6 C7 C8"/>
    </vehicle>
    <vehicle id="113" depart="163.53">
        <route edges="C6 C7 C8 C9 C10 C11 C0 C1 C2 E3"/>
    </vehicle>
    <vehicle id="114" depart="164.98">
        <route edges="3 4 5 6 7 8 9 10 11 E0 E1 E2 E3 E4 E5 E6 E7"/>
    </vehicle>
    <vehicle id="115" depart="166.43">
        <route edges="10 11 0 1 2 3 4"/>
    </vehicle>
    <vehicle id="116" depart="167.87">
        <route edges="C9 C10 C11 C0 C1 C2 E3 E4 E5 E6 E7 E8 9 10 11 E0 E1"/>
    </vehicle>
    <vehicle id="117" depart="169.32">
        <route edges="5 6 7 8 9 10 11 0 1 2"/>
    </vehicle>
    <vehicle id="118" depart="170.77">
        <route edges="E6 E7 E8 9 10 11 0 1 2 3 4 5 6"/>
    </vehicle>
    <vehicle id="119" depart="172.22">
        <route edges="C9 C10 C11 C0 C1 C2 E3 E4 E5 E6 E7 E8 9 10 11 E0"/>
    </vehicle>
    <vehicle id="120" depart="173.66">
        <route edges="C10 C11 C0 C1 C2 E3 E4 E5 C6 C7 C8"/>
    </vehicle>
    <vehicle id="121" depart="175.11">
        <route edges="C6 C7 C8 C9 C10 C11 C0 C1 C2 E3 E4 E5 E6"/>
    </vehicle>
    <vehicle id="122" depart="176.56">
        <route edges="4 5 6 7 8 9 E11"/>
    </vehicle>
    <vehicle id="123" depart="178.00">
        <route edges="6 7 8 9 10 11 E0 E1 E2 E3 E4 E5 C6 C7 C8 C9 C10 C11 C0 C1"/>
    </vehicle>
    <vehicle id="124" depart="179.45">
        <route edges="E1 E2 E3 E4 E5 E6 E7 E8 9 10 11 0 1 2 3 4 5 6 7 8"/>
    </vehicle>
    <vehicle id="125" depart="180.90">
        <route edges="8 9 10 11 E0 E1 E2 E3 E14"/>
    </vehicle>
    <vehicle id="126" depart="182.35">
        <route edges="10 11 E0 E1 E2 E3 E4 E5 C6 C7 C8 C9 C10 C11"/>
    </vehicle>
    <vehicle id="127" depart="183.79">
        <route edges="E9 5 6 7 8 9 10 11 E0 E1 E2 E3 E4 E5 E6 E7 E8"/>
    </vehicle>
    <vehicle id="128" depart="185.24">
        <route edges="10 11 0 1 2 3 4 5"/>
    </vehicle>
    <vehicle id="129" depart="186.69">
        <route edges="7 8 9 10 11 E0 E1 E2 E3 E4 E5 E6"/>
    </vehicle>
    <vehicle id="130" depart="188.13">
        <route edges="E5 E6 E7 E8 9 10 11 E0 E1 E2 E3 E4"/>
    </vehicle>
    <vehicle id="131" depart="189.58">
        <route edges="C0 C1 C2 E3 E4 E5 E6 E7 E8 9 10 11 0 1 2 3"/>
    </vehicle>
    <vehicle id="132" depart="191.03">
        <route edges="E4 E5 E6 E7 E8 9 10 11 0 1 2 3 E10"/>
    </vehicle>
    <vehicle id="133" depart="192.48">
        <route edges="C9 C10 C11 C0 C1 C2 E3 E4 E5 E6 E7 E8"/>
    </vehicle>
    <vehicle id="134" depart="193.92">
        <route edges="E1 E2 E3 E4 E5 E6 E7 E8 9 10 11 0"/>
    </vehicle>
    <vehicle id="135" depart="195.37">
        <route edges="E30 C11 C0 C1 C2 E3 E4 E5 E6 E7 E8 9 10 11 0 1 2 3 4 5 6 7 8"/>
    </vehicle>
    <vehicle id="136" depart="196.82">
        <route edges="E1 E2 E3 E4 E5 E6"/>
    </vehicle>
    <vehicle id="137" depart="198.27">
        <route edges="2 3 4 5 6 7 8 9 10 11"/>
    </vehicle>
    <vehicle id="138" depart="199.71">
        <route edges="11 E0 E1 E2 E3 E4 E5 C6 C7"/>
    </vehicle>
    <vehicle id="139" depart="201.16">
        <route edges="7 8 9 10 11 E0 E1 E2 E3 E4 E5 C6 C7 C8 C9"/>
    </vehicle>
    <vehicle id="140" depart="202.61">
        <route edges="E13 E5 E6 E7 E8 9 10 11 0 1 2 3 4"/>
    </vehicle>
    <vehicle id="141" depart="204.05">
        <route edges="E0 E1 E2 E3 E4 E5 E6 E7 E8 9 10 11 0 1 2 3 4 5 6"/>
    </vehicle>
    <vehicle id="142" depart="205.50">
        <route edges="C2 E3 E4 E5"/>
    </vehicle>
    <vehicle id="143" depart="206.95">
        <route edges="E4 E5 E6 E7 E8 9 10 11"/>
    </vehicle>
    <vehicle id="144" depart="208.40">
        <route edges="C10 C11 C0 C1 C2 E3 E4 E5 E6 E7 E8 9 10 11 0 1 2 3 4 5 6 7"/>
    </vehicle>
    <vehicle id="145" depart="209.84">
        <route edges="0 1 2 3 4 5 6 7 8 9 10 11 E0 E1 E2"/>
    </vehicle>
    <vehicle id="146" depart="211.29">
        <route edges="E0 E1 E2 E3 E4 E5 E6 E7 E8 9 10 11 0 1 2 3 4 5 6"/>
    </vehicle>
    <vehicle id="147" depart="212.74">
        <route edges="E2 E3 E4 E5 C6 C7"/>
    </vehicle>
    <vehicle id="148" depart="214.18">
        <route edges="C10 C11 C0 C1 C2 E3 E4 E5 E6 E7 E8 9 10 11 0"/>
    </vehicle>
    <vehicle id="149" depart="215.63">
        <route edges="10 11 E0 E1 E2 E3 E4 E5"/>
    </vehicle>
    <vehicle id="150" depart="217.08">
        <route edges="E6 E7 E8 9 10 11 E0 E1 E2 E3 E4 E5 C6 C7"/>
    </vehicle>
    <vehicle id="151" depart="218.53">
        <route edges="E4 E5 C6 C7 C8"/>
    </vehicle>
    <vehicle id="152" depart="219.97">
        <route edges="3 4 5 6 7 8 9 10 11 0 1 2"/>
    </vehicle>
    <vehicle id="153" depart="221.42">
        <route edges="8 9 10 11 E0 E1 E2 E3 E4 E5"/>
    </vehicle>
    <vehicle id="154" depart="222.87">
        <route edges="E30 C11 C0 C1 C2 E3 E4"/>
    </vehicle>
    <vehicle id="155" depart="224.31">
        <route edges="E6 E7 E8 9 10 11 0 1 2 3 4 5"/>
    </vehicle>
    <vehicle id="156" depart="225.76">
        <route edges="6 7 8 9 10 11"/>
    </vehicle>
    <vehicle id="157" depart="227.21">
        <route edges="E3 E4 E5"/>
    </vehicle>
    <vehicle id="158" depart="228.66">
        <route edges="C1 C2 E3 E4 E5 E6 E7 E8 9 10 11 E0"/>
    </vehicle>
    <vehicle id="159" depart="230.10">
        <route edges="3 4 5 6 7 8 9 10 11 E0 E1 E2 E3 E4 E5 E6"/>
    </vehicle>
    <vehicle id="160" depart="231.55">
        <route edges="E5 E6 E7 E8"/>
    </vehicle>
    <vehicle id="161" depart="233.00">
        <route edges="E30 C11 C0 C1 C2 E3 E4"/>
    </vehicle>
    <vehicle id="162" depart="234.44">
        <route edges="0 1 2 3 4 5 6 7 8 9 10 11 E0 E1 E2 E3 E14"/>
    </vehicle>
    <vehicle id="163" depart="235.89">
        <route edges="9 10 11 E0 E1 E2 E3 E4 E5 E6"/>
    </vehicle>
    <vehicle id="164" depart="237.34">
        <route edges="E30 C11 C0 C1 C2 E3 E4"/>
    </vehicle>
    <vehicle id="165" depart="238.79">
        <route edges="E30 C11 C0 C1 C2 E3 E4 E5 E6 E7 E8 9 10 11 0 1 2 3 4 5 6 7"/>
    </vehicle>
    <vehicle id="166" depart="240.23">
        <route edges="E3 E4 E5 E6 E7 E8 9 10 11"/>
    </vehicle>
    <vehicle id="167" depart="241.68">
        <route edges="E5 E6 E7 E8 9 10 11 E0 E1 E2 E3 E4"/>
    </vehicle>
    <vehicle id="168" depart="243.13">
        <route edges="5 6 7 8 9 10 11 E0 E1 E2 E3 E4 E5 C6 C7 C8 C9 E29"/>
    </vehicle>
    <vehicle id="169" depart="244.58">
        <route edges="C11 C0 C1 C2 E3 E4 E5 E6 E7 E8 9 10 11 0 1 2 3 4 5 6 7 8"/>
    </vehicle>
    <vehicle id="170" depart="246.02">
        <route edges="E30 C11 C0 C1 C2 E3 E4 E5 E6 E7 E8 9 10 11 0 1 2 3 4 5"/>
    </vehicle>
    <vehicle id="171" depart="247.47">
        <route edges="0 1 2 3 4"/>
    </vehicle>
    <vehicle id="172" depart="248.92">
        <route edges="9 10 11 E0 E1 E2 E3 E4"/>
    </vehicle>
    <vehicle id="173" depart="250.36">
        <route edges="E8 9 10 11 0 1 2 3 4 5 6 7"/>
    </vehicle>
    <vehicle id="174" depart="251.81">
        <route edges="E0 E1 E2 E3 E4 E5 C6 C7 C8 C9 C10 C11 C0 C1"/>
    </vehicle>
    <vehicle id="175" depart="253.26">
        <route edges="E9 5 6 7 8 9 10 11 E0 E1 E2 E3 E4 E5 C6 C7"/>
    </vehicle>
    <vehicle id="176" depart="254.71">
        <route edges="E7 E8 9 10 11"/>
    </vehicle>
    <vehicle id="177" depart="256.15">
        <route edges="E8 9 10 11 0 1 2 3 4"/>
    </vehicle>
    <vehicle id="178" depart="257.60">
        <route edges="E8 9 10 11 0 1 2 3 4 5 6 7"/>
    </vehicle>
    <vehicle id="179" depart="259.05">
        <route edges="11 E0 E1 E2 E3 E4 E5 C6 C7 C8 C9 C10"/>
    </vehicle>
    <vehicle id="180" depart="260.49">
        <route edges="E13 E5 E6 E7 E8 9 10 11 0 1 2 3 4 5 6 7 8"/>
    </vehicle>
    <vehicle id="181" depart="261.94">
        <route edges="C9 C10 C11 C0 C1 C2 E3 E4 E5 C6"/>
    </vehicle>
    <vehicle id="182" depart="263.39">
        <route edges="C1 C2 E3 E4 E5 C6 C7 C8"/>
    </vehicle>
    <vehicle id="183" depart="264.84">
        <route edges="6 7 8 9 E11"/>
    </vehicle>
    <vehicle id="184" depart="266.28">
        <route edges="0 1 2 3 4 5 6 7 8 9 10 11 E0 E1 E2 E3 E4 E5 E6"/>
    </vehicle>
    <vehicle id="185" depart="267.73">
        <route edges="C7 C8 C9 C10 C11 C0 C1 C2 E3 E4 E5 E6 E7 E8 9 E11"/>
    </vehicle>
    <vehicle id="186" depart="269.18">
        <route edges="E2 E3 E4 E5 E6 E7 E8 9 10 11 E0 E1"/>
    </vehicle>
    <vehicle id="187" depart="270.62">
        <route edges="C0 C1 C2 E3 E4 E5 E6 E7 E8 9 10"/>
    </vehicle>
    <vehicle id="188" depart="272.07">
        <route edges="E1 E2 E3 E4 E5 E6 E7 E8 9"/>
    </vehicle>
    <vehicle id="189" depart="273.52">
        <route edges="8 9 10 11 E0 E1 E2 E3"/>
    </vehicle>
    <vehicle id="190" depart="274.97">
        <route edges="E13 E5 E6 E7 E8 9 10 11 0 1 2 3 4 5 6 7 8"/>
    </vehicle>
    <vehicle id="191" depart="276.41">
        <route edges="8 9 10 11 E0 E1 E2 E3 E4 E5 C6 C7 C8 C9 C10 C11 C0 C1"/>
    </vehicle>
    <vehicle id="192" depart="277.86">
        <route edges="C1 C2 E3 E4 E5 E6 E7 E8 9 10 11 0 1 2 3 4 5 6 7 8"/>
    </vehicle>
    <vehicle id="193" depart="279.31">
        <route edges="2 3 4 5 6 7 8 9 10 11 E0 E1 E2 E3 E4 E5 C6 C7 C8 C9 C10"/>
    </vehicle>
    <vehicle id="194" depart="280.75">
        <route edges="E7 E8 9 10 11 0 1 2 3 E10"/>
    </vehicle>
    <vehicle id="195" depart="282.20">
        <route edges="E6 E7 E8 9 10 11 E0 E1 E2 E3 E4 E5 C6 C7 C8 C9"/>
    </vehicle>
    <vehicle id="196" depart="283.65">
        <route edges="8 9 10 11 E0 E1 E2 E3 E4 E5 C6 C7"/>
    </vehicle>
    <vehicle id="197" depart="285.10">
        <route edges="0 1 2 3 4 5 6 7"/>
    </vehicle>
    <vehicle id="198" depart="286.54">
        <route edges="C10 C11 C0 C1 C2 E3 E4 E5 C6 C7 C8"/>
    </vehicle>
    <vehicle id="199" depart="287.99">
        <route edges="E1 E2 E3 E4 E5 C6 C7 C8 C9 C10 C11"/>
    </vehicle>
    <vehicle id="200" depart="289.44">
        <route edges="C11 C0 C1 C2 E3 E4 E5 E6 E7 E8 9 10 11 0 1 2 3 4 5"/>
    </vehicle>
    <vehicle id="201" depart="290.89">
        <route edges="C2 E3 E4 E5"/>
    </vehicle>
    <vehicle id="202" depart="292.33">
        <route edges="E30 C11 C0 C1 C2 E3 E4 E5 E6 E7 E8 9 10 11 0 1 2 3"/>
    </vehicle>
    <vehicle id="203" depart="293.78">
        <route edges="10 11 E0 E1 E2 E3 E4 E5 C6"/>
    </vehicle>
    <vehicle id="204" depart="295.23">
        <route edges="E0 E1 E2 E3 E4 E5 E6 E7 E8 9"/>
    </vehicle>
    <vehicle id="205" depart="296.67">
        <route edges="E30 C11 C0 C1 C2 E3 E14"/>
    </vehicle>
    <vehicle id="206" depart="298.12">
        <route edges="E1 E2 E3 E4 E5 E6 E7 E8 9 10 11 0 1 2 3 4 5"/>
    </vehicle>
    <vehicle id="207" depart="299.57">
        <route edges="4 5 6 7 8 9 10 11 0"/>
    </vehicle>
    <vehicle id="208" depart="301.02">
        <route edges="6 7 8 9 10 11 E0 E1 E2 E3 E4 E5 C6 C7 C8 C9 C10 C11 C0 C1 C2"/>
    </vehicle>
    <vehicle id="209" depart="302.46">
        <route edges="E4 E5 E6 E7 E8 9 10"/>
    </vehicle>
    <vehicle id="210" depart="303.91">
        <route edges="C10 C11 C0 C1 C2 E3 E4 E5 E6 E7 E8 9 10 11 E0"/>
    </vehicle>
    <vehicle id="211" depart="305.36">
        <route edges="4 5 6 7 8 9 10 11 0 1 2 3 E10"/>
    </vehicle>
    <vehicle id="212" depart="306.80">
        <route edges="C2 E3 E4 E5 E6 E7 E8 9 10 11 0 1 2 3 4 5 6"/>
    </vehicle>
    <vehicle id="213" depart="308.25">
        <route edges="E1 E2 E3 E4 E5 E6 E7 E8 9 10 11 0"/>
    </vehicle>
    <vehicle id="214" depart="309.70">
        <route edges="E2"/>
    </vehicle>
    <vehicle id="215" depart="311.15">
        <route edges="11 E0 E1 E2 E3 E4 E5 C6 C7 C8 C9 C10"/>
    </vehicle>
    <vehicle id="216" depart="312.59">
        <route edges="3 4 5 6 7 8 9 10 11 E0 E1 E2 E3 E4 E5 E6 E7"/>
    </vehicle>
    <vehicle id="217" depart="314.04">
        <route edges="C6 C7 C8 C9 C10 C11 C0 C1 C2 E3 E4 E5 E6 E7 E8 9 10 11 0 1"/>
    </vehicle>
    <vehicle id="218" depart="315.49">
        <route edges="6 7 8 9 10 11 E0 E1 E2 E3"/>
    </vehicle>
    <vehicle id="219" depart="316.93">
        <route edges="C11 C0 C1 C2 E3 E4 E5 C6 C7 C8 C9 E29"/>
    </vehicle>
    <vehicle id="220" depart="318.38">
        <route edges="E1 E2 E3 E4 E5 E6 E7 E8"/>
    </vehicle>
    <vehicle id="221" depart="319.83">
        <route edges="C9 C10 C11 C0 C1 C2 E3 E4 E5 E6 E7"/>
    </vehicle>
    <vehicle id="222" depart="321.28">
        <route edges="E6 E7 E8 9 10 11 E0 E1 E2 E3 E4 E5 C6 C7 C8 C9"/>
    </vehicle>
    <vehicle id="223" depart="322.72">
        <route edges="E13 E5 C6"/>
    </vehicle>
    <vehicle id="224" depart="324.17">
        <route edges="E4 E5 C6 C7"/>
    </vehicle>
    <vehicle id="225" depart="325.62">
        <route edges="E6 E7 E8 9 10 11 E0 E1 E2 E3 E14"/>
    </vehicle>
    <vehicle id="226" depart="327.07">
        <route edges="C2 E3 E4 E5 E6 E7 E8 9 10 11 0 1 2 3 4 5 6"/>
    </vehicle>
    <vehicle id="227" depart="328.51">
        <route edges="6 7 8 9 10 11 E0"/>
    </vehicle>
    <vehicle id="228" depart="329.96">
        <route edges="E3 E4 E5 C6"/>
    </vehicle>
    <vehicle id="229" depart="331.41">
        <route edges="E0 E1 E2 E3 E4 E5 E6 E7 E8 9 10 11 0 1 2 3 4 5 6 7"/>
    </vehicle>
    <vehicle id="230" depart="332.85">
        <route edges="10 11 0 1 2 3 4 5 6 7"/>
    </vehicle>
    <vehicle id="231" depart="334.30">
        <route edges="7 8"/>
    </vehicle>
    <vehicle id="232" depart="335.75">
        <route edges="C7 C8 C9 C10 C11 C0 C1 C2 E3 E4 E5 E6 E7 E8 9 10 11 0 1 2"/>
    </vehicle>
    <vehicle id="233" depart="337.20">
        <route edges="5 6 7 8 9 10 11 0 1 2 3 E10"/>
    </vehicle>
    <vehicle id="234" depart="338.64">
        <route edges="E13 E5 E6 E7 E8 9 10"/>
    </vehicle>
    <vehicle id="235" depart="340.09">
        <route edges="C1 C2 E3 E4 E5 C6 C7"/>
    </vehicle>
    <vehicle id="236" depart="341.54">
        <route edges="C10 C11 C0 C1 C2 E3 E4 E5 E6 E7 E8 9 10 11 0 1 2 3 4 5"/>
    </vehicle>
    <vehicle id="237" depart="342.98">
        <route edges="C10 C11 C0 C1 C2 E3 E4 E5"/>
    </vehicle>
    <vehicle id="238" depart="344.43">
        <route edges="C8 C9 C10 C11 C0 C1 C2 E3 E4 E5 E6 E7 E8 9 10 11 0 1 2 3 E10"/>
    </vehicle>
    <vehicle id="239" depart="345.88">
        <route edges="E5 E6 E7 E8 9 10 11 E0 E1 E2"/>
    </vehicle>
    <vehicle id="240" depart="347.33">
        <route edges="C0 C1 C2 E3 E4 E5 E6 E7 E8 9 10 11 0"/>
    </vehicle>
    <vehicle id="241" depart="348.77">
        <route edges="9 10 11 E0 E1 E2 E3 E14"/>
    </vehicle>
    <vehicle id="242" depart="350.22">
        <route edges="E5 E6 E7"/>
    </vehicle>
    <vehicle id="243" depart="351.67">
        <route edges="C10 C11 C0 C1 C2 E3 E14"/>
    </vehicle>
    <vehicle id="244" depart="353.11">
        <route edges="C7 C8 C9"/>
    </vehicle>
    <vehicle id="245" depart="354.56">
        <route edges="5"/>
    </vehicle>
    <vehicle id="246" depart="356.01">
        <route edges="C10 C11 C0 C1 C2 E3 E4 E5 E6 E7 E8 9 10 11 0"/>
    </vehicle>
    <vehicle id="247" depart="357.46">
        <route edges="9 10 11 0 1 2 3 E10"/>
    </vehicle>
    <vehicle id="248" depart="358.90">
        <route edges="C1 C2 E3 E4 E5 E6 E7 E8 9 10 11 0 1 2 3"/>
    </vehicle>
    <vehicle id="249" depart="360.35">
        <route edges="C11 C0 C1 C2 E3 E4 E5 E6 E7 E8 9 10 11 0 1 2"/>
    </vehicle>
    <vehicle id="250" depart="361.80">
        <route edges="E0 E1 E2 E3 E4 E5 E6 E7 E8 9 10 11 0"/>
    </vehicle>
    <vehicle id="251" depart="363.24">
        <route edges="C1 C2 E3 E4 E5 C6 C7 C8"/>
    </vehicle>
    <vehicle id="252" depart="364.69">
        <route edges="0 1 2 3 4 5 6 7 8 9 10 11 E0"/>
    </vehicle>
    <vehicle id="253" depart="366.14">
        <route edges="2 3 4 5 6 7 8 9 10 11 E0 E1 E2 E3 E4 E5 C6 C7 C8 C9 C10 C11"/>
    </vehicle>
    <vehicle id="254" depart="367.59">
        <route edges="1 2 3 4 5 6 7 8 9 10 11 E0 E1 E2 E3 E4 E5 C6 C7 C8 C9 C10 C11 C0"/>
    </vehicle>
    <vehicle id="255" depart="369.03">
        <route edges="5 6 7 8 9"/>
    </vehicle>
    <vehicle id="256" depart="370.48">
        <route edges="E2 E3 E4 E5 C6 C7 C8 C9 C10 C11 C0"/>
    </vehicle>
    <vehicle id="257" depart="371.93">
        <route edges="E2 E3"/>
    </vehicle>
    <vehicle id="258" depart="373.38">
        <route edges="6 7 8 9 10"/>
    </vehicle>
    <vehicle id="259" depart="374.82">
        <route edges="0 1 2 3 4 5 6 7 8 9 10 11 E0 E1 E2 E3 E4 E5 C6 C7"/>
    </vehicle>
    <vehicle id="260" depart="376.27">
        <route edges="E9 5 6 7 8 9"/>
    </vehicle>
    <vehicle id="261" depart="377.72">