<?xml version="1.0" encoding="UTF-8"?>

<!-- generated on 2024-06-23 16:21:46.524415 by randomtrips.py v1_14_1+0000-f654d7b963e
<configuration>
    <end value="3000"/>
    <insertion-density value="56.0"/>
    <net-file value="wang2020/sumo/ring.net.xml"/>
    <route-file value="wang2020/sumo/traffic56.rou.xml"/>
</configuration>
-->

<!-- generated on 2024-06-23 16:21:46 by Eclipse SUMO duarouter Version 1.14.1
<configuration xmlns:xsi="http://www.w3.org/2001/XMLSchema-instance" xsi:noNamespaceSchemaLocation="http://sumo.dlr.de/xsd/duarouterConfiguration.xsd">

    <input>
        <net-file value="wang2020/sumo/ring.net.xml"/>
        <route-files value="trips.trips.xml"/>
    </input>

    <output>
        <output-file value="wang2020/sumo/traffic56.rou.xml"/>
        <alternatives-output value="NUL"/>
    </output>

    <time>
        <begin value="0"/>
        <end value="3000"/>
    </time>

    <report>
        <no-warnings value="true"/>
        <ignore-errors value="true"/>
        <no-step-log value="true"/>
    </report>

</configuration>
-->

<routes xmlns:xsi="http://www.w3.org/2001/XMLSchema-instance" xsi:noNamespaceSchemaLocation="http://sumo.dlr.de/xsd/routes_file.xsd">
    <vehicle id="0" depart="0.00">
        <route edges="E13 E5 E6 E7 E8 9 10 11 0"/>
    </vehicle>
    <vehicle id="1" depart="3.33">
        <route edges="4 5 6 7 8 9 10 11 0 1 2 3"/>
    </vehicle>
    <vehicle id="2" depart="6.65">
        <route edges="E3 E14"/>
    </vehicle>
    <vehicle id="3" depart="9.98">
        <route edges="E7 E8 9 10"/>
    </vehicle>
    <vehicle id="4" depart="13.30">
        <route edges="8 9 10 11 0"/>
    </vehicle>
    <vehicle id="5" depart="16.63">
        <route edges="3 4 5 6 7 8 9 10 11 E0"/>
    </vehicle>
    <vehicle id="6" depart="19.96">
        <route edges="0 1 2"/>
    </vehicle>
    <vehicle id="7" depart="23.28">
        <route edges="E13 E5 E6 E7 E8 9 10 11 E0 E1"/>
    </vehicle>
    <vehicle id="8" depart="26.61">
        <route edges="3 E10"/>
    </vehicle>
    <vehicle id="9" depart="29.93">
        <route edges="E5 E6 E7 E8 9 10 11 0"/>
    </vehicle>
    <vehicle id="10" depart="33.26">
        <route edges="E5 E6 E7 E8 9 10 11 E0 E1 E2 E3 E14"/>
    </vehicle>
    <vehicle id="11" depart="36.59">
        <route edges="6 7 8 9 10 11"/>
    </vehicle>
    <vehicle id="12" depart="39.91">
        <route edges="E8 9 10 11 0 1 2 3 4 5 6"/>
    </vehicle>
    <vehicle id="13" depart="43.24">
        <route edges="10"/>
    </vehicle>
    <vehicle id="14" depart="46.56">
        <route edges="E6 E7 E8 9 10 11 0 1 2 3 E10"/>
    </vehicle>
    <vehicle id="15" depart="49.89">
        <route edges="E5 E6 E7 E8 9 10 11 E0 E1 E2"/>
    </vehicle>
    <vehicle id="16" depart="53.22">
        <route edges="E0 E1 E2 E3 E4 E5 E6 E7 E8"/>
    </vehicle>
    <vehicle id="17" depart="56.54">
        <route edges="7 8 9 10 11 E0 E1"/>
    </vehicle>
    <vehicle id="18" depart="59.87">
        <route edges="E5 E6 E7 E8 9 10 11 0 1 2 3 E10"/>
    </vehicle>
    <vehicle id="19" depart="63.19">
        <route edges="E6 E7 E8 9 10 11 E0 E1"/>
    </vehicle>
    <vehicle id="20" depart="66.52">
        <route edges="E2 E3 E4 E5 E6 E7 E8 9 10 11 0 1"/>
    </vehicle>
    <vehicle id="21" depart="69.85">
        <route edges="3 4"/>
    </vehicle>
    <vehicle id="22" depart="73.17">
        <route edges="1 2 3"/>
    </vehicle>
    <vehicle id="23" depart="76.50">
        <route edges="10 11 0 1 2 3 4"/>
    </vehicle>
    <vehicle id="24" depart="79.83">
        <route edges="E13 E5 E6 E7 E8 9 10 11 0 1 2 3 4 5 6"/>
    </vehicle>
    <vehicle id="25" depart="83.15">
        <route edges="6 7 8 9 10 11 0 1 2 3"/>
    </vehicle>
    <vehicle id="26" depart="86.48">
        <route edges="4 5 6 7 8 9 10 11 E0 E1 E2 E3 E4 E5 E6 E7"/>
    </vehicle>
    <vehicle id="27" depart="89.80">
        <route edges="E13 E5 E6 E7 E8 9 10 11 0 1 2 3 E10"/>
    </vehicle>
    <vehicle id="28" depart="93.13">
        <route edges="2 3 4 5 6 7 8 9 10 11 E0 E1 E2"/>
    </vehicle>
    <vehicle id="29" depart="96.46">
        <route edges="11 0 1 2 3 4 5 6 7"/>
    </vehicle>
    <vehicle id="30" depart="99.78">
        <route edges="E9 5 6 7 8 9 E11"/>
    </vehicle>
    <vehicle id="31" depart="103.11">
        <route edges="E1 E2 E3 E14"/>
    </vehicle>
    <vehicle id="32" depart="106.43">
        <route edges="E6 E7 E8 9 10 11 E0 E1 E2 E3"/>
    </vehicle>
    <vehicle id="33" depart="109.76">
        <route edges="3 4 5 6 7 8 9 10 11 0"/>
    </vehicle>
    <vehicle id="34" depart="113.09">
        <route edges="5 6 7 8 9 10 11 0 1 2 3 4"/>
    </vehicle>
    <vehicle id="35" depart="116.41">
        <route edges="3 4 5 6 7 8 9 10 11 E0 E1 E2 E3 E4 E5 E6 E7"/>
    </vehicle>
    <vehicle id="36" depart="119.74">
        <route edges="E7 E8 9 10 11 0 1 2 3 4 5"/>
    </vehicle>
    <vehicle id="37" depart="123.06">
        <route edges="E13 E5 E6 E7 E8 9 10 11 0 1 2 3 4 5 6 7"/>
    </vehicle>
    <vehicle id="38" depart="126.39">
        <route edges="E7 E8 9"/>
    </vehicle>
    <vehicle id="39" depart="129.72">
        <route edges="4 5 6 7 8 9 10 11 0 1 2 3"/>
    </vehicle>
    <vehicle id="40" depart="133.04">
        <route edges="E1 E2 E3 E4 E5 E6 E7 E8 9 10 11 0 1 2 3 4"/>
    </vehicle>
    <vehicle id="41" depart="136.37">
        <route edges="E12 11 E0 E1 E2 E3 E4 E5 E6"/>
    </vehicle>
    <vehicle id="42" depart="139.69">
        <route edges="7 8 9 10 11 0 1 2 3"/>
    </vehicle>
    <vehicle id="43" depart="143.02">
        <route edges="E9 5 6 7 8 9 10 11 E0"/>
    </vehicle>
    <vehicle id="44" depart="146.35">
        <route edges="10 11 0 1"/>
    </vehicle>
    <vehicle id="45" depart="149.67">
        <route edges="10 11 0 1 2 3 4 5 6 7 8 9 E11"/>
    </vehicle>
    <vehicle id="46" depart="153.00">
        <route edges="E5 E6 E7 E8 9 10 11 0 1 2 3 4 5 6 7 8"/>
    </vehicle>
    <vehicle id="47" depart="156.32">
        <route edges="1 2 3 4 5 6 7"/>
    </vehicle>
    <vehicle id="48" depart="159.65">
        <route edges="E9 5 6 7 8 9 10 11 E0"/>
    </vehicle>
    <vehicle id="49" depart="162.98">
        <route edges="E9 5 6 7 8 9 10 11 E0 E1 E2 E3 E4 E5"/>
    </vehicle>
    <vehicle id="50" depart="166.30">
        <route edges="0 1 2 3 4 5 6 7 8 9 10 11 E0 E1 E2"/>
    </vehicle>
    <vehicle id="51" depart="169.63">
        <route edges="E2 E3 E4 E5 E6 E7 E8 9 10 11 E0"/>
    </vehicle>
    <vehicle id="52" depart="172.95">
        <route edges="4 5 6 7 8 9 E11"/>
    </vehicle>
    <vehicle id="53" depart="176.28">
        <route edges="10 11 0 1 2 3 4 5 6 7 8"/>
    </vehicle>
    <vehicle id="54" depart="179.61">
        <route edges="8 9 10 11 E0 E1 E2 E3 E4 E5 E6 E7"/>
    </vehicle>
    <vehicle id="55" depart="182.93">
        <route edges="E7 E8 9 10 11 0 1 2 3 4"/>
    </vehicle>
    <vehicle id="56" depart="186.26">
        <route edges="E0 E1 E2 E3 E4 E5 E6 E7 E8 9 10 11 0 1 2"/>
    </vehicle>
    <vehicle id="57" depart="189.58">
        <route edges="E7 E8 9 10 11 E0 E1 E2 E3 E4 E5"/>
    </vehicle>
    <vehicle id="58" depart="192.91">
        <route edges="5 6 7 8 9 E11"/>
    </vehicle>
    <vehicle id="59" depart="196.24">
        <route edges="E12 11"/>
    </vehicle>
    <vehicle id="60" depart="199.56">
        <route edges="E4 E5 E6 E7 E8 9 10 11 E0"/>
    </vehicle>
    <vehicle id="61" depart="202.89">
        <route edges="E4 E5 E6 E7 E8 9 10 11 E0"/>
    </vehicle>
    <vehicle id="62" depart="206.21">
        <route edges="0 1 2 3 4 5"/>
    </vehicle>
    <vehicle id="63" depart="209.54">
        <route edges="0 1 2 3 4 5 6 7 8 9 10 11 E0 E1 E2 E3 E4 E5 E6 E7"/>
    </vehicle>
    <vehicle id="64" depart="212.87">
        <route edges="E7 E8 9 10 11 E0 E1 E2 E3 E4"/>
    </vehicle>
    <vehicle id="65" depart="216.19">
        <route edges="5 6 7 8 9 10 11 0 1"/>
    </vehicle>
    <vehicle id="66" depart="219.52">
        <route edges="E7"/>
    </vehicle>
    <vehicle id="67" depart="222.85">
        <route edges="10 11 0 1 2 3 4 5 6 7 8 9"/>
    </vehicle>
    <vehicle id="68" depart="226.17">
        <route edges="1 2 3 4 5 6 7 8 9 10 11 E0 E1 E2 E3"/>
    </vehicle>
    <vehicle id="69" depart="229.50">
        <route edges="E4 E5 E6 E7 E8 9 10 11"/>
    </vehicle>
    <vehicle id="70" depart="232.82">
        <route edges="9 10 11 E0 E1"/>
    </vehicle>
    <vehicle id="71" depart="236.15">
        <route edges="4 5 6 7 8 9 10 11 E0 E1 E2 E3 E4 E5"/>
    </vehicle>
    <vehicle id="72" depart="239.48">
        <route edges="8 9 10 11 0 1 2 3"/>
    </vehicle>
    <vehicle id="73" depart="242.80">
        <route edges="E0 E1 E2"/>
    </vehicle>
    <vehicle id="74" depart="246.13">
        <route edges="2 3 4 5"/>
    </vehicle>
    <vehicle id="75" depart="249.45">
        <route edges="E9 5 6 7 8 9 E11"/>
    </vehicle>
    <vehicle id="76" depart="252.78">
        <route edges="8 9 10 11 E0"/>
    </vehicle>
    <vehicle id="77" depart="256.11">
        <route edges="10 11 0 1 2 3"/>
    </vehicle>
    <vehicle id="78" depart="259.43">
        <route edges="6 7 8 9 10 11 0 1 2 3 E10"/>
    </vehicle>
    <vehicle id="79" depart="262.76">
        <route edges="3"/>
    </vehicle>
    <vehicle id="80" depart="266.08">
        <route edges="1 2 3 4 5 6 7 8 9 E11"/>
    </vehicle>
    <vehicle id="81" depart="269.41">
        <route edges="3 4 5 6 7 8 9 10 11 E0 E1 E2 E3 E4 E5 E6"/>
    </vehicle>
    <vehicle id="82" depart="272.74">
        <route edges="E6 E7 E8 9 10 11 0 1"/>
    </vehicle>
    <vehicle id="83" depart="276.06">
        <route edges="3 4 5 6 7 8 9 10 11 E0 E1 E2 E3 E14"/>
    </vehicle>
    <vehicle id="84" depart="279.39">
        <route edges="3 4 5 6 7 8 9 10 11"/>
    </vehicle>
    <vehicle id="85" depart="282.71">
        <route edges="E8 9 10 11 E0 E1"/>
    </vehicle>
    <vehicle id="86" depart="286.04">
        <route edges="9 10 11 E0 E1 E2 E3"/>
    </vehicle>
    <vehicle id="87" depart="289.37">
        <route edges="E5 E6 E7 E8 9 10 11 0 1 2"/>
    </vehicle>
    <vehicle id="88" depart="292.69">
        <route edges="10 11 0 1 2 3 4 5 6 7 8"/>
    </vehicle>
    <vehicle id="89" depart="296.02">
        <route edges="8 9"/>
    </vehicle>
    <vehicle id="90" depart="299.34">
        <route edges="E3 E14"/>
    </vehicle>
    <vehicle id="91" depart="302.67">
        <route edges="E9 5 6 7 8 9 10"/>
    </vehicle>
    <vehicle id="92" depart="306.00">
        <route edges="7 8 9 10 11 0 1 2 3 4 5 6"/>
    </vehicle>
    <vehicle id="93" depart="309.32">
        <route edges="E6 E7 E8 9 10 11 0 1 2 3"/>
    </vehicle>
    <vehicle id="94" depart="312.65">
        <route edges="2 3 4 5 6 7 8"/>
    </vehicle>
    <vehicle id="95" depart="315.97">
        <route edges="8 9 10 11 0 1 2 3 4"/>
    </vehicle>
    <vehicle id="96" depart="319.30">
        <route edges="3 4 5 6 7 8 9 10 11 E0 E1 E2 E3 E4 E5 E6 E7"/>
    </vehicle>
    <vehicle id="97" depart="322.63">
        <route edges="8 9 10 11 E0 E1 E2 E3 E4 E5"/>
    </vehicle>
    <vehicle id="98" depart="325.95">
        <route edges="E1 E2 E3 E4 E5 E6 E7 E8 9 10 11 0 1"/>
    </vehicle>
    <vehicle id="99" depart="329.28">
        <route edges="E9 5 6 7 8 9 10 11 E0 E1 E2 E3 E4 E5"/>
    </vehicle>
    <vehicle id="100" depart="332.60">
        <route edges="E9 5 6 7 8 9 10 11 E0 E1 E2 E3 E4 E5 E6 E7"/>
    </vehicle>
    <vehicle id="101" depart="335.93">
        <route edges="E6 E7 E8 9 10 11"/>
    </vehicle>
    <vehicle id="102" depart="339.26">
        <route edges="9 10 11 0 1 2 3"/>
    </vehicle>
    <vehicle id="103" depart="342.58">
        <route edges="7 8 9 10 11 0 1"/>
    </vehicle>
    <vehicle id="104" depart="345.91">
        <route edges="7 8 9 10 11 E0 E1 E2 E3 E4 E5 E6 E7 E8"/>
    </vehicle>
    <vehicle id="105" depart="349.23">
        <route edges="4 5 6 7 8 9 10 11 E0 E1 E2 E3"/>
    </vehicle>
    <vehicle id="106" depart="352.56">
        <route edges="8"/>
    </vehicle>
    <vehicle id="107" depart="355.89">
        <route edges="E8"/>
    </vehicle>
    <vehicle id="108" depart="359.21">
        <route edges="E1 E2"/>
    </vehicle>
    <vehicle id="109" depart="362.54">
        <route edges="11 0 1 2 3 4 5"/>
    </vehicle>
    <vehicle id="110" depart="365.87">
        <route edges="E9 5 6 7 8 9 10 11 E0 E1"/>
    </vehicle>
    <vehicle id="111" depart="369.19">
        <route edges="E1 E2"/>
    </vehicle>
    <vehicle id="112" depart="372.52">
        <route edges="1 2 3 E10"/>
    </vehicle>
    <vehicle id="113" depart="375.84">
        <route edges="E0 E1 E2 E3 E4 E5"/>
    </vehicle>
    <vehicle id="114" depart="379.17">
        <route edges="11 E0 E1 E2 E3 E4 E5 E6 E7 E8"/>
    </vehicle>
    <vehicle id="115" depart="382.50">
        <route edges="1 2"/>
    </vehicle>
    <vehicle id="116" depart="385.82">
        <route edges="E12 11 E0 E1 E2 E3 E14"/>
    </vehicle>
    <vehicle id="117" depart="389.15">
        <route edges="3 4 5 6 7 8 9 10"/>
    </vehicle>
    <vehicle id="118" depart="392.47">
        <route edges="E7 E8 9 10 11 0 1 2 3"/>
    </vehicle>
    <vehicle id="119" depart="395.80">
        <route edges="E12 11 0 1 2 3 E10"/>
    </vehicle>
    <vehicle id="120" depart="399.13">
        <route edges="8 9 10 11 0 1 2 3 E10"/>
    </vehicle>
    <vehicle id="121" depart="402.45">
        <route edges="E0 E1 E2 E3 E4 E5 E6 E7"/>
    </vehicle>
    <vehicle id="122" depart="405.78">
        <route edges="2 3 4 5 6 7 8 9 10 11 E0 E1 E2"/>
    </vehicle>
    <vehicle id="123" depart="409.10">
        <route edges="3 4 5 6 7"/>
    </vehicle>
    <vehicle id="124" depart="412.43">
        <route edges="E2 E3 E4 E5 E6 E7 E8 9 10 11 0 1 2 3 4 5"/>
    </vehicle>
    <vehicle id="125" depart="415.76">
        <route edges="5 6 7 8 9 10 11 E0 E1 E2 E3"/>
    </vehicle>
    <vehicle id="126" depart="419.08">
        <route edges="1 2 3 4 5 6 7 8"/>
    </vehicle>
    <vehicle id="127" depart="422.41">
        <route edges="E9 5 6 7 8 9 10 11 E0 E1 E2 E3 E4 E5 E6 E7 E8"/>
    </vehicle>
    <vehicle id="128" depart="425.73">
        <route edges="1 2 3"/>
    </vehicle>
    <vehicle id="129" depart="429.06">
        <route edges="4 5 6 7 8 9 10 11 E0 E1 E2 E3 E4 E5 E6 E7"/>
    </vehicle>
    <vehicle id="130" depart="432.39">
        <route edges="E7 E8 9 10 11 E0 E1 E2 E3 E4 E5 E6"/>
    </vehicle>
    <vehicle id="131" depart="435.71">
        <route edges="6 7 8 9 10 11"/>
    </vehicle>
    <vehicle id="132" depart="439.04">
        <route edges="E6 E7 E8 9 10 11 E0 E1 E2 E3 E14"/>
    </vehicle>
    <vehicle id="133" depart="442.36">
        <route edges="E12 11 E0 E1 E2 E3 E4 E5 E6 E7 E8"/>
    </vehicle>
    <vehicle id="134" depart="445.69">
        <route edges="E13 E5 E6 E7 E8 9 10 11 0"/>
    </vehicle>
    <vehicle id="135" depart="449.02">
        <route edges="E5 E6 E7 E8 9 10 11 0 1 2 3 4 5"/>
    </vehicle>
    <vehicle id="136" depart="452.34">
        <route edges="E13 E5 E6 E7"/>
    </vehicle>
    <vehicle id="137" depart="455.67">
        <route edges="11 0 1 2 3 4 5 6 7 8 9 10"/>
    </vehicle>
    <vehicle id="138" depart="458.99">
        <route edges="10 11 E0 E1"/>
    </vehicle>
    <vehicle id="139" depart="462.32">
        <route edges="4 5 6 7 8 9 10 11 0 1 2 3 E10"/>
    </vehicle>
    <vehicle id="140" depart="465.65">
        <route edges="E3 E4 E5 E6 E7 E8 9 10 11 0 1 2"/>
    </vehicle>
    <vehicle id="141" depart="468.97">
        <route edges="E13 E5 E6 E7 E8 9 10 11 0 1 2 3 4"/>
    </vehicle>
    <vehicle id="142" depart="472.30">
        <route edges="9 10 11 E0 E1 E2 E3 E4 E5 E6"/>
    </vehicle>
    <vehicle id="143" depart="475.62">
        <route edges="E6 E7 E8 9 10"/>
    </vehicle>
    <vehicle id="144" depart="478.95">
        <route edges="8 9 10 11 0 1 2 3 4"/>
    </vehicle>
    <vehicle id="145" depart="482.28">
        <route edges="0 1 2 3 4 5 6 7 8 9 10 11 E0 E1 E2 E3"/>
    </vehicle>
    <vehicle id="146" depart="485.60">
        <route edges="E13 E5 E6 E7 E8 9 10 11 0 1 2 3 4"/>
    </vehicle>
    <vehicle id="147" depart="488.93">
        <route edges="E3 E4 E5 E6 E7 E8 9 10 11 E0 E1"/>
    </vehicle>
    <vehicle id="148" depart="492.26">
        <route edges="8 9 10 11 0"/>
    </vehicle>
    <vehicle id="149" depart="495.58">
        <route edges="1 2 3 4 5 6 7 8 9 10 11 E0 E1 E2 E3 E4 E5 E6"/>
    </vehicle>
    <vehicle id="150" depart="498.91">
        <route edges="E7 E8 9 10 11 E0 E1"/>
    </vehicle>
    <vehicle id="151" depart="502.23">
        <route edges="E6 E7 E8 9 10 11 E0 E1"/>
    </vehicle>
    <vehicle id="152" depart="505.56">
        <route edges="11"/>
    </vehicle>
    <vehicle id="153" depart="508.89">
        <route edges="5 6 7 8 9 10 11 E0 E1 E2 E3 E4 E5 E6"/>
    </vehicle>
    <vehicle id="154" depart="512.21">
        <route edges="E5"/>
    </vehicle>
    <vehicle id="155" depart="515.54">
        <route edges="E7 E8 9 10 11 0 1 2 3"/>
    </vehicle>
    <vehicle id="156" depart="518.86">
        <route edges="3 4 5 6 7 8 9 10"/>
    </vehicle>
    <vehicle id="157" depart="522.19">
        <route edges="E4 E5 E6"/>
    </vehicle>
    <vehicle id="158" depart="525.52">
        <route edges="7 8 9 10 11 0 1 2 3 E10"/>
    </vehicle>
    <vehicle id="159" depart="528.84">
        <route edges="11 E0 E1 E2 E3 E4 E5 E6 E7"/>
    </vehicle>
    <vehicle id="160" depart="532.17">
        <route edges="E6 E7 E8"/>
    </vehicle>
    <vehicle id="161" depart="535.49">
        <route edges="E5 E6"/>
    </vehicle>
    <vehicle id="162" depart="538.82">
        <route edges="0 1 2 3 4 5 6 7 8 9 10 11 E0 E1 E2"/>
    </vehicle>
    <vehicle id="163" depart="542.15">
        <route edges="5 6 7 8 9 10 11 E0 E1 E2 E3 E4 E5 E6 E7"/>
    </vehicle>
    <vehicle id="164" depart="545.47">
        <route edges="E5"/>
    </vehicle>
    <vehicle id="165" depart="548.80">
        <route edges="E5 E6 E7 E8 9 10 11 0 1 2 3 4"/>
    </vehicle>
    <vehicle id="166" depart="552.12">
        <route edges="E4 E5 E6 E7 E8 9 10"/>
    </vehicle>
    <vehicle id="167" depart="555.45">
        <route edges="E6 E7 E8 9 10 11 E0 E1 E2 E3 E4 E5"/>
    </vehicle>
    <vehicle id="168" depart="558.78">
        <route edges="3 4 5 6 7 8 9 10 11 E0 E1 E2 E3 E4"/>
    </vehicle>
    <vehicle id="169" depart="562.10">
        <route edges="9 10 11 0 1 2 3 4 5"/>
    </vehicle>
    <vehicle id="170" depart="565.43">
        <route edges="E5 E6 E7 E8 9 10 11 0 1 2 3"/>
    </vehicle>
    <vehicle id="171" depart="568.75">
        <route edges="0 1 2"/>
    </vehicle>
    <vehicle id="172" depart="572.08">
        <route edges="5 6 7 8 9 10 11 E0 E1 E2 E3 E4 E5"/>
    </vehicle>
    <vehicle id="173" depart="575.41">
        <route edges="E9 5 6 7 8 9 10 11 0 1 2 3 4"/>
    </vehicle>
    <vehicle id="174" depart="578.73">
        <route edges="E13 E5 E6 E7 E8 9 10 11 0 1 2 3 4 5 6 7"/>
    </vehicle>
    <vehicle id="175" depart="582.06">
        <route edges="E9 5 6 7 8 9 10 11 E0"/>
    </vehicle>
    <vehicle id="176" depart="585.38">
        <route edges="E8 9 10"/>
    </vehicle>
    <vehicle id="177" depart="588.71">
        <route edges="E9 5 6 7 8 9 10 11 0 1 2"/>
    </vehicle>
    <vehicle id="178" depart="592.04">
        <route edges="E9 5 6 7 8 9 10 11 0 1 2 3 4"/>
    </vehicle>
    <vehicle id="179" depart="595.36">
        <route edges="10 11 0 1 2 3 4 5 6 7 8"/>
    </vehicle>
    <vehicle id="180" depart="598.69">
        <route edges="E3 E4 E5 E6 E7 E8 9 10 11 0 1 2 3 4 5"/>
    </vehicle>
    <vehicle id="181" depart="602.01">
        <route edges="E12 11 E0"/>
    </vehicle>
    <vehicle id="182" depart="605.34">
        <route edges="7 8 9 10 11 E0 E1"/>
    </vehicle>
    <vehicle id="183" depart="608.67">
        <route edges="4 5 6 7 8 9 10 11 E0 E1 E2"/>
    </vehicle>
    <vehicle id="184" depart="611.99">
        <route edges="0 1 2 3 4 5 6 7 8 9 10 11 E0 E1 E2 E3 E4 E5 E6 E7"/>
    </vehicle>
    <vehicle id="185" depart="615.32">
        <route edges="E0 E1 E2"/>
    </vehicle>
    <vehicle id="186" depart="618.64">
        <route edges="E3 E14"/>
    </vehicle>
    <vehicle id="187" depart="621.97">
        <route edges="6 7 8 9 10 11 0 1"/>
    </vehicle>
    <vehicle id="188" depart="625.30">
        <route edges="E13 E5 E6 E7 E8 9 10 11 0 1 2 3 4 5"/>
    </vehicle>
    <vehicle id="189" depart="628.62">
        <route edges="5 6 7 8 9 10 11 E0 E1 E2 E3 E4 E5"/>
    </vehicle>
    <vehicle id="190" depart="631.95">
        <route edges="E3 E4 E5 E6 E7 E8 9 10 11 0 1 2 3 4 5"/>
    </vehicle>
    <vehicle id="191" depart="635.28">
        <route edges="5 6 7"/>
    </vehicle>
    <vehicle id="192" depart="638.60">
        <route edges="7 8 9 10 11 0 1 2 3 4 5"/>
    </vehicle>
    <vehicle id="193" depart="641.93">
        <route edges="11 0 1 2 3 4 5 6 7 8"/>
    </vehicle>
    <vehicle id="194" depart="645.25">
        <route edges="E8 9 10 11 E0 E1 E2 E3 E14"/>
    </vehicle>
    <vehicle id="195" depart="648.58">
        <route edges="E7 E8 9 10 11 0 1 2 3 E10"/>
    </vehicle>
    <vehicle id="196" depart="651.91">
        <route edges="5 6 7 8 9 10 11 E0 E1"/>
    </vehicle>
    <vehicle id="197" depart="655.23">
        <route edges="0 1 2 3 4"/>
    </vehicle>
    <vehicle id="198" depart="658.56">
        <route edges="8 9 10 11 E0 E1"/>
    </vehicle>
    <vehicle id="199" depart="661.88">
        <route edges="E13 E5 E6 E7 E8 9"/>
    </vehicle>
    <vehicle id="200" depart="665.21">
        <route edges="8 9 10 11 0 1 2 3"/>
    </vehicle>
    <vehicle id="201" depart="668.54">
        <route edges="9 10 11 E0 E1 E2 E3 E4 E5 E6"/>
    </vehicle>
    <vehicle id="202" depart="671.86">
        <route edges="E5 E6 E7 E8 9 10 11 0 1 2"/>
    </vehicle>
    <vehicle id="203" depart="675.19">
        <route edges="10 11 E0"/>
    </vehicle>
    <vehicle id="204" depart="678.51">
        <route edges="E13 E5 E6 E7 E8 9 10 11 0 1 2 3 4 5 6"/>
    </vehicle>
    <vehicle id="205" depart="681.84">
        <route edges="E5 E6 E7 E8 9 10 11 E0 E1 E2 E3"/>
    </vehicle>
    <vehicle id="206" depart="685.17">
        <route edges="E2 E3 E4 E5 E6 E7 E8 9 10 11 0 1 2 3"/>
    </vehicle>
    <vehicle id="207" depart="688.49">
        <route edges="2 3 4 5 6 7 8 9 10 11 0"/>
    </vehicle>
    <vehicle id="208" depart="691.82">
        <route edges="3 4 5 6 7 8 9"/>
    </vehicle>
    <vehicle id="209" depart="695.14">
        <route edges="E6 E7 E8 9 10 11 0 1"/>
    </vehicle>
    <vehicle id="210" depart="698.47">
        <route edges="7 8 9 E11"/>
    </vehicle>
    <vehicle id="211" depart="701.80">
        <route edges="2 3 4 5 6 7 8 9 10 11 E0 E1 E2 E3 E14"/>
    </vehicle>
    <vehicle id="212" depart="705.12">
        <route edges="9 10 11 0 1 2 3"/>
    </vehicle>
    <vehicle id="213" depart="708.45">
        <route edges="E13 E5 E6 E7 E8 9 10 11 0"/>
    </vehicle>
    <vehicle id="214" depart="711.77">
        <route edges="E4 E5 E6 E7 E8 9 10 11 E0 E1 E2 E3"/>
    </vehicle>
    <vehicle id="215" depart="715.10">
        <route edges="10 11 0 1 2 3 4 5 6 7 8"/>
    </vehicle>
    <vehicle id="216" depart="718.43">
        <route edges="2 3 4 5 6 7 8 9 10 11 E0 E1 E2 E3 E4 E5 E6 E7"/>
    </vehicle>
    <vehicle id="217" depart="721.75">
        <route edges="E0 E1 E2 E3 E4 E5 E6 E7 E8 9 10 11 0 1"/>
    </vehicle>
    <vehicle id="218" depart="725.08">
        <route edges="3 4 5 6 7 8 9 10 11 E0 E1 E2 E3 E4 E5"/>
    </vehicle>
    <vehicle id="219" depart="728.40">
        <route edges="8 9 10 11 E0 E1 E2 E3 E4"/>
    </vehicle>
    <vehicle id="220" depart="731.73">
        <route edges="E2 E3 E4 E5 E6 E7 E8"/>
    </vehicle>
    <vehicle id="221" depart="735.06">
        <route edges="E12 11 E0 E1 E2 E3 E4 E5 E6 E7"/>
    </vehicle>
    <vehicle id="222" depart="738.38">
        <route edges="E7 E8 9 10 11 0 1 2 3 E10"/>
    </vehicle>
    <vehicle id="223" depart="741.71">
        <route edges="E3 E4 E5 E6 E7 E8 9 10 11 E0"/>
    </vehicle>
    <vehicle id="224" depart="745.03">
        <route edges="E5 E6 E7 E8 9 10 11 E0 E1"/>
    </vehicle>
    <vehicle id="225" depart="748.36">
        <route edges="E7 E8 9 10 11 E0 E1 E2"/>
    </vehicle>
    <vehicle id="226" depart="751.69">
        <route edges="9 10 11 0 1 2 3 4"/>
    </vehicle>
    <vehicle id="227" depart="755.01">
        <route edges="3 4 5 6 7 8 9 E11"/>
    </vehicle>
    <vehicle id="228" depart="758.34">
        <route edges="E4 E5 E6 E7 E8 9 10 11 E0"/>
    </vehicle>
    <vehicle id="229" depart="761.66">
        <route edges="E13 E5 E6 E7 E8 9 10 11 0 1 2 3 4"/>
    </vehicle>
    <vehicle id="230" depart="764.99">
        <route edges="1 2 3 4"/>
    </vehicle>
    <vehicle id="231" depart="768.32">
        <route edges="4 5"/>
    </vehicle>
    <vehicle id="232" depart="771.64">
        <route edges="E0 E1 E2 E3 E4 E5 E6 E7 E8 9 10 11"/>
    </vehicle>
    <vehicle id="233" depart="774.97">
        <route edges="3 4 5 6 7 8 9 10 11 E0 E1 E2 E3 E14"/>
    </vehicle>
    <vehicle id="234" depart="778.30">
        <route edges="E2 E3 E4 E5 E6 E7 E8 9 10 11 0 1"/>
    </vehicle>
    <vehicle id="235" depart="781.62">
        <route edges="7 8 9 10 11 E0 E1"/>
    </vehicle>
    <vehicle id="236" depart="784.95">
        <route edges="7 8 9 10 11 0 1 2"/>
    </vehicle>
    <vehicle id="237" depart="788.27">
        <route edges="8 9 10 11 E0 E1 E2 E3 E4 E5 E6"/>
    </vehicle>
    <vehicle id="238" depart="791.60">
        <route edges="E12 11 E0 E1 E2 E3 E14"/>
    </vehicle>
    <vehicle id="239" depart="794.93">
        <route edges="E6 E7 E8 9 10 11 E0 E1 E2 E3"/>
    </vehicle>
    <vehicle id="240" depart="798.25">
        <route edges="7 8 9 10 11 0"/>
    </vehicle>
    <vehicle id="241" depart="801.58">
        <route edges="6 7 8 9 10 11 E0 E1 E2 E3"/>
    </vehicle>
    <vehicle id="242" depart="804.90">
        <route edges="E6 E7"/>
    </vehicle>
    <vehicle id="243" depart="808.23">
        <route edges="8 9 10 11 E0 E1 E2"/>
    </vehicle>
    <vehicle id="244" depart="811.56">
        <route edges="E1 E2 E3 E4 E5 E6 E7 E8 9 10 11 0 1 2 3 E10"/>
    </vehicle>
    <vehicle id="245" depart="814.88">
        <route edges="3"/>
    </vehicle>
    <vehicle id="246" depart="818.21">
        <route edges="8 9 10 11 0"/>
    </vehicle>
    <vehicle id="247" depart="821.53">
        <route edges="6 7 8 9 10 11 E0 E1 E2 E3 E14"/>
    </vehicle>
    <vehicle id="248" depart="824.86">
        <route edges="7 8 9 10 11"/>
    </vehicle>
    <vehicle id="249" depart="828.19">
        <route edges="9 10 11"/>
    </vehicle>
    <vehicle id="250" depart="831.51">
        <route edges="E12 11 0"/>
    </vehicle>
    <vehicle id="251" depart="834.84">
        <route edges="7 8 9 10 11 E0 E1"/>
    </vehicle>
    <vehicle id="252" depart="838.16">
        <route edges="0 1 2 3 4 5 6 7 8 9 E11"/>
    </vehicle>
    <vehicle id="253" depart="841.49">
        <route edges="11 0 1 2 3 4 5 6 7 8 9"/>
    </vehicle>
    <vehicle id="254" depart="844.82">
        <route edges="1 2 3 4 5 6 7"/>
    </vehicle>
    <vehicle id="255" depart="848.14">
        <route edges="3 4 5"/>
    </vehicle>
    <vehicle id="256" depart="851.47">
        <route edges="E4 E5 E6 E7 E8 9 10 11 0 1 2 3 4 5 6 7"/>
    </vehicle>
    <vehicle id="257" depart="854.79">
        <route edges="E4"/>
    </vehicle>
    <vehicle id="258" depart="858.12">
        <route edges="4 5 6 7 8 9 10 11 0 1"/>
    </vehicle>
    <vehicle id="259" depart="861.45">
        <route edges="0 1 2 3 4 5 6 7 8 9 10 11 E0"/>
    </vehicle>
    <vehicle id="260" depart="864.77">
        <route edges="E9 5 6"/>
    </vehicle>
    <vehicle id="261" depart="868.10">
        <route edges="E13 E5 E6 E7 E8 9 10 11 E0 E1 E2 E3"/>
    </vehicle>
    <vehicle id="262" depart="871.42">
        <route edges="E13 E5 E6 E7 E8 9 10 11 E0 E1 E2 E3"/>
    </vehicle>
    <vehicle id="263" depart="874.75">
        <route edges="E8 9 10 11 0 1 2"/>
    </vehicle>
    <vehicle id="264" depart="878.08">
        <route edges="0 1 2 3 4 5 6 7 8 9 10 11"/>
    </vehicle>
    <vehicle id="265" depart="881.40">
        <route edges="11 E0 E1 E2 E3 E14"/>
    </vehicle>
    <vehicle id="266" depart="884.73">
        <route edges="E1 E2 E3 E4 E5 E6 E7 E8 9 10 11 0 1 2 3"/>
    </vehicle>
    <vehicle id="267" depart="888.05">
        <route edges="E2 E3"/>
    </vehicle>
    <vehicle id="268" depart="891.38">
        <route edges="2 3 E10"/>
    </vehicle>
    <vehicle id="269" depart="894.71">
        <route edges="E3 E4 E5 E6 E7 E8 9 10"/>
    </vehicle>
    <vehicle id="270" depart="898.03">
        <route edges="E5 E6 E7 E8"/>
    </vehicle>
    <vehicle id="271" depart="901.36">
        <route edges="10 11 0"/>
    </vehicle>
    <vehicle id="272" depart="904.68">
        <route edges="5 6 7 8 9 10 11 E0 E1 E2 E3 E14"/>
    </vehicle>
    <vehicle id="273" depart="908.01">
        <route edges="E8 9 10 11 0 1 2 3 4 5 6 7"/>
    </vehicle>
    <vehicle id="274" depart="911.34">
        <route edges="E3 E4 E5 E6 E7 E8 9 10 11 0 1"/>
    </vehicle>
    <vehicle id="275" depart="914.66">
        <route edges="E2 E3 E4 E5 E6 E7 E8 9 E11"/>
    </vehicle>
    <vehicle id="276" depart="917.99">
        <route edges="10 11 E0 E1 E2 E3"/>
    </vehicle>
    <vehicle id="277" depart="921.32">
        <route edges="E6 E7 E8 9 10 11 0 1 2 3 E10"/>
    </vehicle>
    <vehicle id="278" depart="924.64">
        <route edges="10 11 E0 E1 E2 E3 E4 E5 E6 E7 E8"/>
    </vehicle>
    <vehicle id="279" depart="927.97">
        <route edges="E4 E5 E6 E7 E8 9 10 11 0 1 2 3 4 5 6"/>
    </vehicle>
    <vehicle id="280" depart="931.29">
        <route edges="8 9 10 11 0 1 2 3 4 5 6"/>
    </vehicle>
    <vehicle id="281" depart="934.62">
        <route edges="E0 E1 E2 E3 E4 E5 E6 E7 E8 9 10 11 0 1 2 3 4 5 6"/>
    </vehicle>
    <vehicle id="282" depart="937.95">
        <route edges="E6 E7 E8 9 10 11 E0 E1 E2 E3 E4"/>
    </vehicle>