<?xml version="1.0" encoding="UTF-8"?>

<!-- generated on 2024-06-20 12:32:14.193849 by randomtrips.py v1_14_1+0000-f654d7b963e
<configuration>
    <end value="3000"/>
    <insertion-density value="100.0"/>
    <net-file value="wang2020/sumo/ring.net.xml"/>
    <route-file value="wang2020/sumo/traffic.rou.xml"/>
</configuration>
-->

<!-- generated on 2024-06-20 12:32:14 by Eclipse SUMO duarouter Version 1.14.1
<configuration xmlns:xsi="http://www.w3.org/2001/XMLSchema-instance" xsi:noNamespaceSchemaLocation="http://sumo.dlr.de/xsd/duarouterConfiguration.xsd">

    <input>
        <net-file value="wang2020/sumo/ring.net.xml"/>
        <route-files value="trips.trips.xml"/>
    </input>

    <output>
        <output-file value="wang2020/sumo/traffic.rou.xml"/>
        <alternatives-output value="NUL"/>
    </output>

    <time>
        <begin value="0"/>
        <end value="3000"/>
    </time>

    <report>
        <no-warnings value="true"/>
        <ignore-errors value="true"/>
        <no-step-log value="true"/>
    </report>

</configuration>
-->

<routes xmlns:xsi="http://www.w3.org/2001/XMLSchema-instance" xsi:noNamespaceSchemaLocation="http://sumo.dlr.de/xsd/routes_file.xsd">
    <vehicle id="0" depart="0.00">
        <route edges="E13 E5 E6 E7 E8 9 10 11 0"/>
    </vehicle>
    <vehicle id="1" depart="1.86">
        <route edges="4 5 6 7 8 9 10 11 0 1 2 3"/>
    </vehicle>
    <vehicle id="2" depart="3.73">
        <route edges="E3 E14"/>
    </vehicle>
    <vehicle id="3" depart="5.59">
        <route edges="E7 E8 9 10"/>
    </vehicle>
    <vehicle id="4" depart="7.45">
        <route edges="8 9 10 11 0"/>
    </vehicle>
    <vehicle id="5" depart="9.31">
        <route edges="3 4 5 6 7 8 9 10 11 E0"/>
    </vehicle>
    <vehicle id="6" depart="11.18">
        <route edges="0 1 2"/>
    </vehicle>
    <vehicle id="7" depart="13.04">
        <route edges="E13 E5 E6 E7 E8 9 10 11 E0 E1"/>
    </vehicle>
    <vehicle id="8" depart="14.90">
        <route edges="3 E10"/>
    </vehicle>
    <vehicle id="9" depart="16.76">
        <route edges="E5 E6 E7 E8 9 10 11 0"/>
    </vehicle>
    <vehicle id="10" depart="18.63">
        <route edges="E5 E6 E7 E8 9 10 11 E0 E1 E2 E3 E14"/>
    </vehicle>
    <vehicle id="11" depart="20.49">
        <route edges="6 7 8 9 10 11"/>
    </vehicle>
    <vehicle id="12" depart="22.35">
        <route edges="E8 9 10 11 0 1 2 3 4 5 6"/>
    </vehicle>
    <vehicle id="13" depart="24.21">
        <route edges="10"/>
    </vehicle>
    <vehicle id="14" depart="26.08">
        <route edges="E6 E7 E8 9 10 11 0 1 2 3 E10"/>
    </vehicle>
    <vehicle id="15" depart="27.94">
        <route edges="E5 E6 E7 E8 9 10 11 E0 E1 E2"/>
    </vehicle>
    <vehicle id="16" depart="29.80">
        <route edges="E0 E1 E2 E3 E4 E5 E6 E7 E8"/>
    </vehicle>
    <vehicle id="17" depart="31.66">
        <route edges="7 8 9 10 11 E0 E1"/>
    </vehicle>
    <vehicle id="18" depart="33.53">
        <route edges="E5 E6 E7 E8 9 10 11 0 1 2 3 E10"/>
    </vehicle>
    <vehicle id="19" depart="35.39">
        <route edges="E6 E7 E8 9 10 11 E0 E1"/>
    </vehicle>
    <vehicle id="20" depart="37.25">
        <route edges="E2 E3 E4 E5 E6 E7 E8 9 10 11 0 1"/>
    </vehicle>
    <vehicle id="21" depart="39.11">
        <route edges="3 4"/>
    </vehicle>
    <vehicle id="22" depart="40.98">
        <route edges="1 2 3"/>
    </vehicle>
    <vehicle id="23" depart="42.84">
        <route edges="10 11 0 1 2 3 4"/>
    </vehicle>
    <vehicle id="24" depart="44.70">
        <route edges="E13 E5 E6 E7 E8 9 10 11 0 1 2 3 4 5 6"/>
    </vehicle>
    <vehicle id="25" depart="46.56">
        <route edges="6 7 8 9 10 11 0 1 2 3"/>
    </vehicle>
    <vehicle id="26" depart="48.43">
        <route edges="4 5 6 7 8 9 10 11 E0 E1 E2 E3 E4 E5 E6 E7"/>
    </vehicle>
    <vehicle id="27" depart="50.29">
        <route edges="E13 E5 E6 E7 E8 9 10 11 0 1 2 3 E10"/>
    </vehicle>
    <vehicle id="28" depart="52.15">
        <route edges="2 3 4 5 6 7 8 9 10 11 E0 E1 E2"/>
    </vehicle>
    <vehicle id="29" depart="54.02">
        <route edges="11 0 1 2 3 4 5 6 7"/>
    </vehicle>
    <vehicle id="30" depart="55.88">
        <route edges="E9 5 6 7 8 9 E11"/>
    </vehicle>
    <vehicle id="31" depart="57.74">
        <route edges="E1 E2 E3 E14"/>
    </vehicle>
    <vehicle id="32" depart="59.60">
        <route edges="E6 E7 E8 9 10 11 E0 E1 E2 E3"/>
    </vehicle>
    <vehicle id="33" depart="61.47">
        <route edges="3 4 5 6 7 8 9 10 11 0"/>
    </vehicle>
    <vehicle id="34" depart="63.33">
        <route edges="5 6 7 8 9 10 11 0 1 2 3 4"/>
    </vehicle>
    <vehicle id="35" depart="65.19">
        <route edges="3 4 5 6 7 8 9 10 11 E0 E1 E2 E3 E4 E5 E6 E7"/>
    </vehicle>
    <vehicle id="36" depart="67.05">
        <route edges="E7 E8 9 10 11 0 1 2 3 4 5"/>
    </vehicle>
    <vehicle id="37" depart="68.92">
        <route edges="E13 E5 E6 E7 E8 9 10 11 0 1 2 3 4 5 6 7"/>
    </vehicle>
    <vehicle id="38" depart="70.78">
        <route edges="E7 E8 9"/>
    </vehicle>
    <vehicle id="39" depart="72.64">
        <route edges="4 5 6 7 8 9 10 11 0 1 2 3"/>
    </vehicle>
    <vehicle id="40" depart="74.50">
        <route edges="E1 E2 E3 E4 E5 E6 E7 E8 9 10 11 0 1 2 3 4"/>
    </vehicle>
    <vehicle id="41" depart="76.37">
        <route edges="E12 11 E0 E1 E2 E3 E4 E5 E6"/>
    </vehicle>
    <vehicle id="42" depart="78.23">
        <route edges="7 8 9 10 11 0 1 2 3"/>
    </vehicle>
    <vehicle id="43" depart="80.09">
        <route edges="E9 5 6 7 8 9 10 11 E0"/>
    </vehicle>
    <vehicle id="44" depart="81.95">
        <route edges="10 11 0 1"/>
    </vehicle>
    <vehicle id="45" depart="83.82">
        <route edges="10 11 0 1 2 3 4 5 6 7 8 9 E11"/>
    </vehicle>
    <vehicle id="46" depart="85.68">
        <route edges="E5 E6 E7 E8 9 10 11 0 1 2 3 4 5 6 7 8"/>
    </vehicle>
    <vehicle id="47" depart="87.54">
        <route edges="1 2 3 4 5 6 7"/>
    </vehicle>
    <vehicle id="48" depart="89.40">
        <route edges="E9 5 6 7 8 9 10 11 E0"/>
    </vehicle>
    <vehicle id="49" depart="91.27">
        <route edges="E9 5 6 7 8 9 10 11 E0 E1 E2 E3 E4 E5"/>
    </vehicle>
    <vehicle id="50" depart="93.13">
        <route edges="0 1 2 3 4 5 6 7 8 9 10 11 E0 E1 E2"/>
    </vehicle>
    <vehicle id="51" depart="94.99">
        <route edges="E2 E3 E4 E5 E6 E7 E8 9 10 11 E0"/>
    </vehicle>
    <vehicle id="52" depart="96.85">
        <route edges="4 5 6 7 8 9 E11"/>
    </vehicle>
    <vehicle id="53" depart="98.72">
        <route edges="10 11 0 1 2 3 4 5 6 7 8"/>
    </vehicle>
    <vehicle id="54" depart="100.58">
        <route edges="8 9 10 11 E0 E1 E2 E3 E4 E5 E6 E7"/>
    </vehicle>
    <vehicle id="55" depart="102.44">
        <route edges="E7 E8 9 10 11 0 1 2 3 4"/>
    </vehicle>
    <vehicle id="56" depart="104.30">
        <route edges="E0 E1 E2 E3 E4 E5 E6 E7 E8 9 10 11 0 1 2"/>
    </vehicle>
    <vehicle id="57" depart="106.17">
        <route edges="E7 E8 9 10 11 E0 E1 E2 E3 E4 E5"/>
    </vehicle>
    <vehicle id="58" depart="108.03">
        <route edges="5 6 7 8 9 E11"/>
    </vehicle>
    <vehicle id="59" depart="109.89">
        <route edges="E12 11"/>
    </vehicle>
    <vehicle id="60" depart="111.76">
        <route edges="E4 E5 E6 E7 E8 9 10 11 E0"/>
    </vehicle>
    <vehicle id="61" depart="113.62">
        <route edges="E4 E5 E6 E7 E8 9 10 11 E0"/>
    </vehicle>
    <vehicle id="62" depart="115.48">
        <route edges="0 1 2 3 4 5"/>
    </vehicle>
    <vehicle id="63" depart="117.34">
        <route edges="0 1 2 3 4 5 6 7 8 9 10 11 E0 E1 E2 E3 E4 E5 E6 E7"/>
    </vehicle>
    <vehicle id="64" depart="119.21">
        <route edges="E7 E8 9 10 11 E0 E1 E2 E3 E4"/>
    </vehicle>
    <vehicle id="65" depart="121.07">
        <route edges="5 6 7 8 9 10 11 0 1"/>
    </vehicle>
    <vehicle id="66" depart="122.93">
        <route edges="E7"/>
    </vehicle>
    <vehicle id="67" depart="124.79">
        <route edges="10 11 0 1 2 3 4 5 6 7 8 9"/>
    </vehicle>
    <vehicle id="68" depart="126.66">
        <route edges="1 2 3 4 5 6 7 8 9 10 11 E0 E1 E2 E3"/>
    </vehicle>
    <vehicle id="69" depart="128.52">
        <route edges="E4 E5 E6 E7 E8 9 10 11"/>
    </vehicle>
    <vehicle id="70" depart="130.38">
        <route edges="9 10 11 E0 E1"/>
    </vehicle>
    <vehicle id="71" depart="132.24">
        <route edges="4 5 6 7 8 9 10 11 E0 E1 E2 E3 E4 E5"/>
    </vehicle>
    <vehicle id="72" depart="134.11">
        <route edges="8 9 10 11 0 1 2 3"/>
    </vehicle>
    <vehicle id="73" depart="135.97">
        <route edges="E0 E1 E2"/>
    </vehicle>
    <vehicle id="74" depart="137.83">
        <route edges="2 3 4 5"/>
    </vehicle>
    <vehicle id="75" depart="139.69">
        <route edges="E9 5 6 7 8 9 E11"/>
    </vehicle>
    <vehicle id="76" depart="141.56">
        <route edges="8 9 10 11 E0"/>
    </vehicle>
    <vehicle id="77" depart="143.42">
        <route edges="10 11 0 1 2 3"/>
    </vehicle>
    <vehicle id="78" depart="145.28">
        <route edges="6 7 8 9 10 11 0 1 2 3 E10"/>
    </vehicle>
    <vehicle id="79" depart="147.14">
        <route edges="3"/>
    </vehicle>
    <vehicle id="80" depart="149.01">
        <route edges="1 2 3 4 5 6 7 8 9 E11"/>
    </vehicle>
    <vehicle id="81" depart="150.87">
        <route edges="3 4 5 6 7 8 9 10 11 E0 E1 E2 E3 E4 E5 E6"/>
    </vehicle>
    <vehicle id="82" depart="152.73">
        <route edges="E6 E7 E8 9 10 11 0 1"/>
    </vehicle>
    <vehicle id="83" depart="154.59">
        <route edges="3 4 5 6 7 8 9 10 11 E0 E1 E2 E3 E14"/>
    </vehicle>
    <vehicle id="84" depart="156.46">
        <route edges="3 4 5 6 7 8 9 10 11"/>
    </vehicle>
    <vehicle id="85" depart="158.32">
        <route edges="E8 9 10 11 E0 E1"/>
    </vehicle>
    <vehicle id="86" depart="160.18">
        <route edges="9 10 11 E0 E1 E2 E3"/>
    </vehicle>
    <vehicle id="87" depart="162.05">
        <route edges="E5 E6 E7 E8 9 10 11 0 1 2"/>
    </vehicle>
    <vehicle id="88" depart="163.91">
        <route edges="10 11 0 1 2 3 4 5 6 7 8"/>
    </vehicle>
    <vehicle id="89" depart="165.77">
        <route edges="8 9"/>
    </vehicle>
    <vehicle id="90" depart="167.63">
        <route edges="E3 E14"/>
    </vehicle>
    <vehicle id="91" depart="169.50">
        <route edges="E9 5 6 7 8 9 10"/>
    </vehicle>
    <vehicle id="92" depart="171.36">
        <route edges="7 8 9 10 11 0 1 2 3 4 5 6"/>
    </vehicle>
    <vehicle id="93" depart="173.22">
        <route edges="E6 E7 E8 9 10 11 0 1 2 3"/>
    </vehicle>
    <vehicle id="94" depart="175.08">
        <route edges="2 3 4 5 6 7 8"/>
    </vehicle>
    <vehicle id="95" depart="176.95">
        <route edges="8 9 10 11 0 1 2 3 4"/>
    </vehicle>
    <vehicle id="96" depart="178.81">
        <route edges="3 4 5 6 7 8 9 10 11 E0 E1 E2 E3 E4 E5 E6 E7"/>
    </vehicle>
    <vehicle id="97" depart="180.67">
        <route edges="8 9 10 11 E0 E1 E2 E3 E4 E5"/>
    </vehicle>
    <vehicle id="98" depart="182.53">
        <route edges="E1 E2 E3 E4 E5 E6 E7 E8 9 10 11 0 1"/>
    </vehicle>
    <vehicle id="99" depart="184.40">
        <route edges="E9 5 6 7 8 9 10 11 E0 E1 E2 E3 E4 E5"/>
    </vehicle>
    <vehicle id="100" depart="186.26">
        <route edges="E9 5 6 7 8 9 10 11 E0 E1 E2 E3 E4 E5 E6 E7"/>
    </vehicle>
    <vehicle id="101" depart="188.12">
        <route edges="E6 E7 E8 9 10 11"/>
    </vehicle>
    <vehicle id="102" depart="189.98">
        <route edges="9 10 11 0 1 2 3"/>
    </vehicle>
    <vehicle id="103" depart="191.85">
        <route edges="7 8 9 10 11 0 1"/>
    </vehicle>
    <vehicle id="104" depart="193.71">
        <route edges="7 8 9 10 11 E0 E1 E2 E3 E4 E5 E6 E7 E8"/>
    </vehicle>
    <vehicle id="105" depart="195.57">
        <route edges="4 5 6 7 8 9 10 11 E0 E1 E2 E3"/>
    </vehicle>
    <vehicle id="106" depart="197.43">
        <route edges="8"/>
    </vehicle>
    <vehicle id="107" depart="199.30">
        <route edges="E8"/>
    </vehicle>
    <vehicle id="108" depart="201.16">
        <route edges="E1 E2"/>
    </vehicle>
    <vehicle id="109" depart="203.02">
        <route edges="11 0 1 2 3 4 5"/>
    </vehicle>
    <vehicle id="110" depart="204.88">
        <route edges="E9 5 6 7 8 9 10 11 E0 E1"/>
    </vehicle>
    <vehicle id="111" depart="206.75">
        <route edges="E1 E2"/>
    </vehicle>
    <vehicle id="112" depart="208.61">
        <route edges="1 2 3 E10"/>
    </vehicle>
    <vehicle id="113" depart="210.47">
        <route edges="E0 E1 E2 E3 E4 E5"/>
    </vehicle>
    <vehicle id="114" depart="212.33">
        <route edges="11 E0 E1 E2 E3 E4 E5 E6 E7 E8"/>
    </vehicle>
    <vehicle id="115" depart="214.20">
        <route edges="1 2"/>
    </vehicle>
    <vehicle id="116" depart="216.06">
        <route edges="E12 11 E0 E1 E2 E3 E14"/>
    </vehicle>
    <vehicle id="117" depart="217.92">
        <route edges="3 4 5 6 7 8 9 10"/>
    </vehicle>
    <vehicle id="118" depart="219.79">
        <route edges="E7 E8 9 10 11 0 1 2 3"/>
    </vehicle>
    <vehicle id="119" depart="221.65">
        <route edges="E12 11 0 1 2 3 E10"/>
    </vehicle>
    <vehicle id="120" depart="223.51">
        <route edges="8 9 10 11 0 1 2 3 E10"/>
    </vehicle>
    <vehicle id="121" depart="225.37">
        <route edges="E0 E1 E2 E3 E4 E5 E6 E7"/>
    </vehicle>
    <vehicle id="122" depart="227.24">
        <route edges="2 3 4 5 6 7 8 9 10 11 E0 E1 E2"/>
    </vehicle>
    <vehicle id="123" depart="229.10">
        <route edges="3 4 5 6 7"/>
    </vehicle>
    <vehicle id="124" depart="230.96">
        <route edges="E2 E3 E4 E5 E6 E7 E8 9 10 11 0 1 2 3 4 5"/>
    </vehicle>
    <vehicle id="125" depart="232.82">
        <route edges="5 6 7 8 9 10 11 E0 E1 E2 E3"/>
    </vehicle>
    <vehicle id="126" depart="234.69">
        <route edges="1 2 3 4 5 6 7 8"/>
    </vehicle>
    <vehicle id="127" depart="236.55">
        <route edges="E9 5 6 7 8 9 10 11 E0 E1 E2 E3 E4 E5 E6 E7 E8"/>
    </vehicle>
    <vehicle id="128" depart="238.41">
        <route edges="1 2 3"/>
    </vehicle>
    <vehicle id="129" depart="240.27">
        <route edges="4 5 6 7 8 9 10 11 E0 E1 E2 E3 E4 E5 E6 E7"/>
    </vehicle>
    <vehicle id="130" depart="242.14">
        <route edges="E7 E8 9 10 11 E0 E1 E2 E3 E4 E5 E6"/>
    </vehicle>
    <vehicle id="131" depart="244.00">
        <route edges="6 7 8 9 10 11"/>
    </vehicle>
    <vehicle id="132" depart="245.86">
        <route edges="E6 E7 E8 9 10 11 E0 E1 E2 E3 E14"/>
    </vehicle>
    <vehicle id="133" depart="247.72">
        <route edges="E12 11 E0 E1 E2 E3 E4 E5 E6 E7 E8"/>
    </vehicle>
    <vehicle id="134" depart="249.59">
        <route edges="E13 E5 E6 E7 E8 9 10 11 0"/>
    </vehicle>
    <vehicle id="135" depart="251.45">
        <route edges="E5 E6 E7 E8 9 10 11 0 1 2 3 4 5"/>
    </vehicle>
    <vehicle id="136" depart="253.31">
        <route edges="E13 E5 E6 E7"/>
    </vehicle>
    <vehicle id="137" depart="255.17">
        <route edges="11 0 1 2 3 4 5 6 7 8 9 10"/>
    </vehicle>
    <vehicle id="138" depart="257.04">
        <route edges="10 11 E0 E1"/>
    </vehicle>
    <vehicle id="139" depart="258.90">
        <route edges="4 5 6 7 8 9 10 11 0 1 2 3 E10"/>
    </vehicle>
    <vehicle id="140" depart="260.76">
        <route edges="E3 E4 E5 E6 E7 E8 9 10 11 0 1 2"/>
    </vehicle>
    <vehicle id="141" depart="262.62">
        <route edges="E13 E5 E6 E7 E8 9 10 11 0 1 2 3 4"/>
    </vehicle>
    <vehicle id="142" depart="264.49">
        <route edges="9 10 11 E0 E1 E2 E3 E4 E5 E6"/>
    </vehicle>
    <vehicle id="143" depart="266.35">
        <route edges="E6 E7 E8 9 10"/>
    </vehicle>
    <vehicle id="144" depart="268.21">
        <route edges="8 9 10 11 0 1 2 3 4"/>
    </vehicle>
    <vehicle id="145" depart="270.08">
        <route edges="0 1 2 3 4 5 6 7 8 9 10 11 E0 E1 E2 E3"/>
    </vehicle>
    <vehicle id="146" depart="271.94">
        <route edges="E13 E5 E6 E7 E8 9 10 11 0 1 2 3 4"/>
    </vehicle>
    <vehicle id="147" depart="273.80">
        <route edges="E3 E4 E5 E6 E7 E8 9 10 11 E0 E1"/>
    </vehicle>
    <vehicle id="148" depart="275.66">
        <route edges="8 9 10 11 0"/>
    </vehicle>
    <vehicle id="149" depart="277.53">
        <route edges="1 2 3 4 5 6 7 8 9 10 11 E0 E1 E2 E3 E4 E5 E6"/>
    </vehicle>
    <vehicle id="150" depart="279.39">
        <route edges="E7 E8 9 10 11 E0 E1"/>
    </vehicle>
    <vehicle id="151" depart="281.25">
        <route edges="E6 E7 E8 9 10 11 E0 E1"/>
    </vehicle>
    <vehicle id="152" depart="283.11">
        <route edges="11"/>
    </vehicle>
    <vehicle id="153" depart="284.98">
        <route edges="5 6 7 8 9 10 11 E0 E1 E2 E3 E4 E5 E6"/>
    </vehicle>
    <vehicle id="154" depart="286.84">
        <route edges="E5"/>
    </vehicle>
    <vehicle id="155" depart="288.70">
        <route edges="E7 E8 9 10 11 0 1 2 3"/>
    </vehicle>
    <vehicle id="156" depart="290.56">
        <route edges="3 4 5 6 7 8 9 10"/>
    </vehicle>
    <vehicle id="157" depart="292.43">
        <route edges="E4 E5 E6"/>
    </vehicle>
    <vehicle id="158" depart="294.29">
        <route edges="7 8 9 10 11 0 1 2 3 E10"/>
    </vehicle>
    <vehicle id="159" depart="296.15">
        <route edges="11 E0 E1 E2 E3 E4 E5 E6 E7"/>
    </vehicle>
    <vehicle id="160" depart="298.01">
        <route edges="E6 E7 E8"/>
    </vehicle>
    <vehicle id="161" depart="299.88">
        <route edges="E5 E6"/>
    </vehicle>
    <vehicle id="162" depart="301.74">
        <route edges="0 1 2 3 4 5 6 7 8 9 10 11 E0 E1 E2"/>
    </vehicle>
    <vehicle id="163" depart="303.60">
        <route edges="5 6 7 8 9 10 11 E0 E1 E2 E3 E4 E5 E6 E7"/>
    </vehicle>
    <vehicle id="164" depart="305.46">
        <route edges="E5"/>
    </vehicle>
    <vehicle id="165" depart="307.33">
        <route edges="E5 E6 E7 E8 9 10 11 0 1 2 3 4"/>
    </vehicle>
    <vehicle id="166" depart="309.19">
        <route edges="E4 E5 E6 E7 E8 9 10"/>
    </vehicle>
    <vehicle id="167" depart="311.05">
        <route edges="E6 E7 E8 9 10 11 E0 E1 E2 E3 E4 E5"/>
    </vehicle>
    <vehicle id="168" depart="312.91">
        <route edges="3 4 5 6 7 8 9 10 11 E0 E1 E2 E3 E4"/>
    </vehicle>
    <vehicle id="169" depart="314.78">
        <route edges="9 10 11 0 1 2 3 4 5"/>
    </vehicle>
    <vehicle id="170" depart="316.64">
        <route edges="E5 E6 E7 E8 9 10 11 0 1 2 3"/>
    </vehicle>
    <vehicle id="171" depart="318.50">
        <route edges="0 1 2"/>
    </vehicle>
    <vehicle id="172" depart="320.36">
        <route edges="5 6 7 8 9 10 11 E0 E1 E2 E3 E4 E5"/>
    </vehicle>
    <vehicle id="173" depart="322.23">
        <route edges="E9 5 6 7 8 9 10 11 0 1 2 3 4"/>
    </vehicle>
    <vehicle id="174" depart="324.09">
        <route edges="E13 E5 E6 E7 E8 9 10 11 0 1 2 3 4 5 6 7"/>
    </vehicle>
    <vehicle id="175" depart="325.95">
        <route edges="E9 5 6 7 8 9 10 11 E0"/>
    </vehicle>
    <vehicle id="176" depart="327.82">
        <route edges="E8 9 10"/>
    </vehicle>
    <vehicle id="177" depart="329.68">
        <route edges="E9 5 6 7 8 9 10 11 0 1 2"/>
    </vehicle>
    <vehicle id="178" depart="331.54">
        <route edges="E9 5 6 7 8 9 10 11 0 1 2 3 4"/>
    </vehicle>
    <vehicle id="179" depart="333.40">
        <route edges="10 11 0 1 2 3 4 5 6 7 8"/>
    </vehicle>
    <vehicle id="180" depart="335.27">
        <route edges="E3 E4 E5 E6 E7 E8 9 10 11 0 1 2 3 4 5"/>
    </vehicle>
    <vehicle id="181" depart="337.13">
        <route edges="E12 11 E0"/>
    </vehicle>
    <vehicle id="182" depart="338.99">
        <route edges="7 8 9 10 11 E0 E1"/>
    </vehicle>
    <vehicle id="183" depart="340.85">
        <route edges="4 5 6 7 8 9 10 11 E0 E1 E2"/>
    </vehicle>
    <vehicle id="184" depart="342.72">
        <route edges="0 1 2 3 4 5 6 7 8 9 10 11 E0 E1 E2 E3 E4 E5 E6 E7"/>
    </vehicle>
    <vehicle id="185" depart="344.58">
        <route edges="E0 E1 E2"/>
    </vehicle>
    <vehicle id="186" depart="346.44">
        <route edges="E3 E14"/>
    </vehicle>
    <vehicle id="187" depart="348.30">
        <route edges="6 7 8 9 10 11 0 1"/>
    </vehicle>
    <vehicle id="188" depart="350.17">
        <route edges="E13 E5 E6 E7 E8 9 10 11 0 1 2 3 4 5"/>
    </vehicle>
    <vehicle id="189" depart="352.03">
        <route edges="5 6 7 8 9 10 11 E0 E1 E2 E3 E4 E5"/>
    </vehicle>
    <vehicle id="190" depart="353.89">
        <route edges="E3 E4 E5 E6 E7 E8 9 10 11 0 1 2 3 4 5"/>
    </vehicle>
    <vehicle id="191" depart="355.75">
        <route edges="5 6 7"/>
    </vehicle>
    <vehicle id="192" depart="357.62">
        <route edges="7 8 9 10 11 0 1 2 3 4 5"/>
    </vehicle>
    <vehicle id="193" depart="359.48">
        <route edges="11 0 1 2 3 4 5 6 7 8"/>
    </vehicle>
    <vehicle id="194" depart="361.34">
        <route edges="E8 9 10 11 E0 E1 E2 E3 E14"/>
    </vehicle>
    <vehicle id="195" depart="363.20">
        <route edges="E7 E8 9 10 11 0 1 2 3 E10"/>
    </vehicle>
    <vehicle id="196" depart="365.07">
        <route edges="5 6 7 8 9 10 11 E0 E1"/>
    </vehicle>
    <vehicle id="197" depart="366.93">
        <route edges="0 1 2 3 4"/>
    </vehicle>
    <vehicle id="198" depart="368.79">
        <route edges="8 9 10 11 E0 E1"/>
    </vehicle>
    <vehicle id="199" depart="370.65">
        <route edges="E13 E5 E6 E7 E8 9"/>
    </vehicle>
    <vehicle id="200" depart="372.52">
        <route edges="8 9 10 11 0 1 2 3"/>
    </vehicle>
    <vehicle id="201" depart="374.38">
        <route edges="9 10 11 E0 E1 E2 E3 E4 E5 E6"/>
    </vehicle>
    <vehicle id="202" depart="376.24">
        <route edges="E5 E6 E7 E8 9 10 11 0 1 2"/>
    </vehicle>
    <vehicle id="203" depart="378.11">
        <route edges="10 11 E0"/>
    </vehicle>
    <vehicle id="204" depart="379.97">
        <route edges="E13 E5 E6 E7 E8 9 10 11 0 1 2 3 4 5 6"/>
    </vehicle>
    <vehicle id="205" depart="381.83">
        <route edges="E5 E6 E7 E8 9 10 11 E0 E1 E2 E3"/>
    </vehicle>
    <vehicle id="206" depart="383.69">
        <route edges="E2 E3 E4 E5 E6 E7 E8 9 10 11 0 1 2 3"/>
    </vehicle>
    <vehicle id="207" depart="385.56">
        <route edges="2 3 4 5 6 7 8 9 10 11 0"/>
    </vehicle>
    <vehicle id="208" depart="387.42">
        <route edges="3 4 5 6 7 8 9"/>
    </vehicle>
    <vehicle id="209" depart="389.28">
        <route edges="E6 E7 E8 9 10 11 0 1"/>
    </vehicle>
    <vehicle id="210" depart="391.14">
        <route edges="7 8 9 E11"/>
    </vehicle>
    <vehicle id="211" depart="393.01">
        <route edges="2 3 4 5 6 7 8 9 10 11 E0 E1 E2 E3 E14"/>
    </vehicle>
    <vehicle id="212" depart="394.87">
        <route edges="9 10 11 0 1 2 3"/>
    </vehicle>
    <vehicle id="213" depart="396.73">
        <route edges="E13 E5 E6 E7 E8 9 10 11 0"/>
    </vehicle>
    <vehicle id="214" depart="398.59">
        <route edges="E4 E5 E6 E7 E8 9 10 11 E0 E1 E2 E3"/>
    </vehicle>
    <vehicle id="215" depart="400.46">
        <route edges="10 11 0 1 2 3 4 5 6 7 8"/>
    </vehicle>
    <vehicle id="216" depart="402.32">
        <route edges="2 3 4 5 6 7 8 9 10 11 E0 E1 E2 E3 E4 E5 E6 E7"/>
    </vehicle>
    <vehicle id="217" depart="404.18">
        <route edges="E0 E1 E2 E3 E4 E5 E6 E7 E8 9 10 11 0 1"/>
    </vehicle>
    <vehicle id="218" depart="406.04">
        <route edges="3 4 5 6 7 8 9 10 11 E0 E1 E2 E3 E4 E5"/>
    </vehicle>
    <vehicle id="219" depart="407.91">
        <route edges="8 9 10 11 E0 E1 E2 E3 E4"/>
    </vehicle>
    <vehicle id="220" depart="409.77">
        <route edges="E2 E3 E4 E5 E6 E7 E8"/>
    </vehicle>
    <vehicle id="221" depart="411.63">
        <route edges="E12 11 E0 E1 E2 E3 E4 E5 E6 E7"/>
    </vehicle>
    <vehicle id="222" depart="413.49">
        <route edges="E7 E8 9 10 11 0 1 2 3 E10"/>
    </vehicle>
    <vehicle id="223" depart="415.36">
        <route edges="E3 E4 E5 E6 E7 E8 9 10 11 E0"/>
    </vehicle>
    <vehicle id="224" depart="417.22">
        <route edges="E5 E6 E7 E8 9 10 11 E0 E1"/>
    </vehicle>
    <vehicle id="225" depart="419.08">
        <route edges="E7 E8 9 10 11 E0 E1 E2"/>
    </vehicle>
    <vehicle id="226" depart="420.94">
        <route edges="9 10 11 0 1 2 3 4"/>
    </vehicle>
    <vehicle id="227" depart="422.81">
        <route edges="3 4 5 6 7 8 9 E11"/>
    </vehicle>
    <vehicle id="228" depart="424.67">
        <route edges="E4 E5 E6 E7 E8 9 10 11 E0"/>
    </vehicle>
    <vehicle id="229" depart="426.53">
        <route edges="E13 E5 E6 E7 E8 9 10 11 0 1 2 3 4"/>
    </vehicle>
    <vehicle id="230" depart="428.39">
        <route edges="1 2 3 4"/>
    </vehicle>
    <vehicle id="231" depart="430.26">
        <route edges="4 5"/>
    </vehicle>
    <vehicle id="232" depart="432.12">
        <route edges="E0 E1 E2 E3 E4 E5 E6 E7 E8 9 10 11"/>
    </vehicle>
    <vehicle id="233" depart="433.98">
        <route edges="3 4 5 6 7 8 9 10 11 E0 E1 E2 E3 E14"/>
    </vehicle>
    <vehicle id="234" depart="435.85">
        <route edges="E2 E3 E4 E5 E6 E7 E8 9 10 11 0 1"/>
    </vehicle>
    <vehicle id="235" depart="437.71">
        <route edges="7 8 9 10 11 E0 E1"/>
    </vehicle>
    <vehicle id="236" depart="439.57">
        <route edges="7 8 9 10 11 0 1 2"/>
    </vehicle>
    <vehicle id="237" depart="441.43">
        <route edges="8 9 10 11 E0 E1 E2 E3 E4 E5 E6"/>
    </vehicle>
    <vehicle id="238" depart="443.30">
        <route edges="E12 11 E0 E1 E2 E3 E14"/>
    </vehicle>
    <vehicle id="239" depart="445.16">
        <route edges="E6 E7 E8 9 10 11 E0 E1 E2 E3"/>
    </vehicle>
    <vehicle id="240" depart="447.02">
        <route edges="7 8 9 10 11 0"/>
    </vehicle>
    <vehicle id="241" depart="448.88">
        <route edges="6 7 8 9 10 11 E0 E1 E2 E3"/>
    </vehicle>
    <vehicle id="242" depart="450.75">
        <route edges="E6 E7"/>
    </vehicle>
    <vehicle id="243" depart="452.61">
        <route edges="8 9 10 11 E0 E1 E2"/>
    </vehicle>
    <vehicle id="244" depart="454.47">
        <route edges="E1 E2 E3 E4 E5 E6 E7 E8 9 10 11 0 1 2 3 E10"/>
    </vehicle>
    <vehicle id="245" depart="456.33">
        <route edges="3"/>
    </vehicle>
    <vehicle id="246" depart="458.20">
        <route edges="8 9 10 11 0"/>
    </vehicle>
    <vehicle id="247" depart="460.06">
        <route edges="6 7 8 9 10 11 E0 E1 E2 E3 E14"/>
    </vehicle>
    <vehicle id="248" depart="461.92">
        <route edges="7 8 9 10 11"/>
    </vehicle>
    <vehicle id="249" depart="463.78">
        <route edges="9 10 11"/>
    </vehicle>
    <vehicle id="250" depart="465.65">
        <route edges="E12 11 0"/>
    </vehicle>
    <vehicle id="251" depart="467.51">
        <route edges="7 8 9 10 11 E0 E1"/>
    </vehicle>
    <vehicle id="252" depart="469.37">
        <route edges="0 1 2 3 4 5 6 7 8 9 E11"/>
    </vehicle>
    <vehicle id="253" depart="471.23">
        <route edges="11 0 1 2 3 4 5 6 7 8 9"/>
    </vehicle>
    <vehicle id="254" depart="473.10">
        <route edges="1 2 3 4 5 6 7"/>
    </vehicle>
    <vehicle id="255" depart="474.96">
        <route edges="3 4 5"/>
    </vehicle>
    <vehicle id="256" depart="476.82">
        <route edges="E4 E5 E6 E7 E8 9 10 11 0 1 2 3 4 5 6 7"/>
    </vehicle>
    <vehicle id="257" depart="478.68">
        <route edges="E4"/>
    </vehicle>
    <vehicle id="258" depart="480.55">
        <route edges="4 5 6 7 8 9 10 11 0 1"/>
    </vehicle>
    <vehicle id="259" depart="482.41">
        <route edges="0 1 2 3 4 5 6 7 8 9 10 11 E0"/>
    </vehicle>
    <vehicle id="260" depart="484.27">
        <route edges="E9 5 6"/>
    </vehicle>
    <vehicle id="261" depart="486.14">
        <route edges="E13 E5 E6 E7 E8 9 10 11 E0 E1 E2 E3"/>
    </vehicle>
    <vehicle id="262" depart="488.00">
        <route edges="E13 E5 E6 E7 E8 9 10 11 E0 E1 E2 E3"/>
    </vehicle>
    <vehicle id="263" depart="489.86">
        <route edges="E8 9 10 11 0 1 2"/>
    </vehicle>
    <vehicle id="264" depart="491.72">
        <route edges="0 1 2 3 4 5 6 7 8 9 10 11"/>
    </vehicle>
    <vehicle id="265" depart="493.59">
        <route edges="11 E0 E1 E2 E3 E14"/>
    </vehicle>
    <vehicle id="266" depart="495.45">
        <route edges="E1 E2 E3 E4 E5 E6 E7 E8 9 10 11 0 1 2 3"/>
    </vehicle>
    <vehicle id="267" depart="497.31">
        <route edges="E2 E3"/>
    </vehicle>
    <vehicle id="268" depart="499.17">
        <route edges="2 3 E10"/>
    </vehicle>
    <vehicle id="269" depart="501.04">
        <route edges="E3 E4 E5 E6 E7 E8 9 10"/>
    </vehicle>
    <vehicle id="270" depart="502.90">
        <route edges="E5 E6 E7 E8"/>
    </vehicle>
    <vehicle id="271" depart="504.76">
        <route edges="10 11 0"/>
    </vehicle>
    <vehicle id="272" depart="506.62">
        <route edges="5 6 7 8 9 10 11 E0 E1 E2 E3 E14"/>
    </vehicle>
    <vehicle id="273" depart="508.49">
        <route edges="E8 9 10 11 0 1 2 3 4 5 6 7"/>
    </vehicle>
    <vehicle id="274" depart="510.35">
        <route edges="E3 E4 E5 E6 E7 E8 9 10 11 0 1"/>
    </vehicle>
    <vehicle id="275" depart="512.21">
        <route edges="E2 E3 E4 E5 E6 E7 E8 9 E11"/>
    </vehicle>
    <vehicle id="276" depart="514.07">
        <route edges="10 11 E0 E1 E2 E3"/>
    </vehicle>
    <vehicle id="277" depart="515.94">
        <route edges="E6 E7 E8 9 10 11 0 1 2 3 E10"/>
    </vehicle>
    <vehicle id="278" depart="517.80">
        <route edges="10 11 E0 E1 E2 E3 E4 E5 E6 E7 E8"/>
    </vehicle>
    <vehicle id="279" depart="519.66">
        <route edges="E4 E5 E6 E7 E8 9 10 11 0 1 2 3 4 5 6"/>
    </vehicle>
    <vehicle id="280" depart="521.52">
        <route edges="8 9 10 11 0 1 2 3 4 5 6"/>
    </vehicle>
    <vehicle id="281" depart="523.39">
        <route edges="E0 E1 E2 E3 E4 E5 E6 E7 E8 9 10 11 0 1 2 3 4 5 6"/>
    </vehicle>
    <vehicle id="282" depart="525.25">
        <route edges="E6 E7 E8 9 10 11 E0 E1 E2 E3 E4"/>
    </vehicle>