<configuration>
    <input>
        <net-file value="ring.net.xml"/>
        <additional-files value="ring.add.xml,persons.add.xml,traffic29_2.rou.xml"/>
    </input>
</configuration>