<?xml version="1.0" encoding="UTF-8"?>

<!-- generated on 2024-07-16 13:43:37.786605 by randomtrips.py v1_14_1+0000-f654d7b963e
<configuration>
    <end value="3000"/>
    <insertion-density value="100.0"/>
    <net-file value="scenario2/sumo/ring.net.xml"/>
    <route-file value="scenario2/sumo/traffic100.rou.xml"/>
</configuration>
-->

<!-- generated on 2024-07-16 13:43:37 by Eclipse SUMO duarouter Version 1.14.1
<configuration xmlns:xsi="http://www.w3.org/2001/XMLSchema-instance" xsi:noNamespaceSchemaLocation="http://sumo.dlr.de/xsd/duarouterConfiguration.xsd">

    <input>
        <net-file value="scenario2/sumo/ring.net.xml"/>
        <route-files value="trips.trips.xml"/>
    </input>

    <output>
        <output-file value="scenario2/sumo/traffic100.rou.xml"/>
        <alternatives-output value="NUL"/>
    </output>

    <time>
        <begin value="0"/>
        <end value="3000"/>
    </time>

    <report>
        <no-warnings value="true"/>
        <ignore-errors value="true"/>
        <no-step-log value="true"/>
    </report>

</configuration>
-->

<routes xmlns:xsi="http://www.w3.org/2001/XMLSchema-instance" xsi:noNamespaceSchemaLocation="http://sumo.dlr.de/xsd/routes_file.xsd">
    <vehicle id="0" depart="0.00">
        <route edges="E0 E1 E2 E3 E4 E5 E6 E7 E8 9 10 11 0"/>
    </vehicle>
    <vehicle id="1" depart="1.30">
        <route edges="7 8 9 10 11 0 1 2 3 4 5"/>
    </vehicle>
    <vehicle id="2" depart="2.60">
        <route edges="E2 E3 E4 E5 E6 E7 E8 9 10 11 0 1 2 3 E10"/>
    </vehicle>
    <vehicle id="3" depart="3.91">
        <route edges="E6 E7 E8 9 10"/>
    </vehicle>
    <vehicle id="4" depart="5.21">
        <route edges="C10 C11 C0 C1 C2 E3 E4 E5 E6 E7 E8 9 10 11 0 1"/>
    </vehicle>
    <vehicle id="5" depart="6.51">
        <route edges="5 6 7 8 9 10 11 E0 E1 E2 E3 E4 E5 C6"/>
    </vehicle>
    <vehicle id="6" depart="7.81">
        <route edges="0 1 2 3 4"/>
    </vehicle>
    <vehicle id="7" depart="9.12">
        <route edges="E1 E2 E3 E4 E5 C6 C7"/>
    </vehicle>
    <vehicle id="8" depart="10.42">
        <route edges="5 6 7 8 9 10 11 E0 E1 E2 E3 E4 E5 C6 C7 C8 C9"/>
    </vehicle>
    <vehicle id="9" depart="11.72">
        <route edges="E30 C11 C0 C1 C2 E3 E4 E5 E6 E7 E8 9 10 11 0"/>
    </vehicle>
    <vehicle id="10" depart="13.02">
        <route edges="E30 C11 C0 C1 C2 E3 E4 E5 E6 E7 E8 9 10 11 0 1 2 3 E10"/>
    </vehicle>
    <vehicle id="11" depart="14.33">
        <route edges="9 10 11 0 1 2 3"/>
    </vehicle>
    <vehicle id="12" depart="15.63">
        <route edges="E8 9"/>
    </vehicle>
    <vehicle id="13" depart="16.93">
        <route edges="11"/>
    </vehicle>
    <vehicle id="14" depart="18.23">
        <route edges="E4 E5 C6 C7 C8 C9"/>
    </vehicle>
    <vehicle id="15" depart="19.54">
        <route edges="E30 C11 C0 C1 C2 E3 E4 E5 E6 E7 E8 9 E11"/>
    </vehicle>
    <vehicle id="16" depart="20.84">
        <route edges="C7 C8 C9 C10 C11 C0 C1 C2 E3 E4 E5 E6 E7 E8"/>
    </vehicle>
    <vehicle id="17" depart="22.14">
        <route edges="C0 C1 C2 E3 E4 E5 C6 C7"/>
    </vehicle>
    <vehicle id="18" depart="23.44">
        <route edges="E4 E5 E6 E7 E8 9 10 11 E0"/>
    </vehicle>
    <vehicle id="19" depart="24.75">
        <route edges="E5 C6 C7 C8"/>
    </vehicle>
    <vehicle id="20" depart="26.05">
        <route edges="E12 11 0 1"/>
    </vehicle>
    <vehicle id="21" depart="27.35">
        <route edges="5 6 7"/>
    </vehicle>
    <vehicle id="22" depart="28.65">
        <route edges="10 11 0 1 2 3 4 5"/>
    </vehicle>
    <vehicle id="23" depart="29.96">
        <route edges="11 0 1 2 3 4 5 6 7"/>
    </vehicle>
    <vehicle id="24" depart="31.26">
        <route edges="E0 E1 E2 E3 E4 E5 C6 C7 C8 C9 C10 C11 C0"/>
    </vehicle>
    <vehicle id="25" depart="32.56">
        <route edges="C0 C1 C2 E3 E4 E5 E6 E7 E8 9 10 11 0 1 2 3 4 5"/>
    </vehicle>
    <vehicle id="26" depart="33.86">
        <route edges="7 8 9 10 11 E0 E1 E2 E3 E4 E5 E6"/>
    </vehicle>
    <vehicle id="27" depart="35.17">
        <route edges="E1 E2 E3 E4 E5 C6 C7 C8 C9"/>
    </vehicle>
    <vehicle id="28" depart="36.47">
        <route edges="3 4 5 6 7 8 9 E11"/>
    </vehicle>
    <vehicle id="29" depart="37.77">
        <route edges="3 4 5 6 7 8 9 10 11 E0 E1 E2 E3 E4 E5 C6 C7 C8 C9 C10 C11 C0"/>
    </vehicle>
    <vehicle id="30" depart="39.07">
        <route edges="E9 5 6 7 8 9 10 11 E0"/>
    </vehicle>
    <vehicle id="31" depart="40.38">
        <route edges="C7 C8 C9 C10 C11 C0 C1 C2 E3 E4 E5 E6 E7 E8 9 10 11 0 1 2 3 E10"/>
    </vehicle>
    <vehicle id="32" depart="41.68">
        <route edges="E4 E5 E6 E7 E8 9 10 11 E0 E1 E2"/>
    </vehicle>
    <vehicle id="33" depart="42.98">
        <route edges="5 6 7 8 9 10 11 0 1"/>
    </vehicle>
    <vehicle id="34" depart="44.28">
        <route edges="8 9 10 11 0 1 2 3 4 5 6 7"/>
    </vehicle>
    <vehicle id="35" depart="45.59">
        <route edges="5 6 7 8 9 10 11 E0 E1 E2 E3 E4 E5 E6 E7"/>
    </vehicle>
    <vehicle id="36" depart="46.89">
        <route edges="E5 E6 E7 E8 9 10 11 0 1 2 3 4 5 6 7 8"/>
    </vehicle>
    <vehicle id="37" depart="48.19">
        <route edges="E1 E2 E3 E4 E5 C6 C7 C8 C9 C10 C11 C0 C1"/>
    </vehicle>
    <vehicle id="38" depart="49.49">
        <route edges="E7 E8 9 10 11 E0 E1 E2 E3 E4 E5 C6 C7 C8 C9 C10 C11"/>
    </vehicle>
    <vehicle id="39" depart="50.80">
        <route edges="7 8 9 10 11 0 1 2 3 4 5 6"/>
    </vehicle>
    <vehicle id="40" depart="52.10">
        <route edges="C8 C9 C10 C11 C0 C1 C2 E3 E4 E5 E6 E7 E8 9 10 11 0 1 2 3 4 5 6"/>
    </vehicle>
    <vehicle id="41" depart="53.40">
        <route edges="C8 C9 C10 C11 C0 C1 C2 E3 E4 E5"/>
    </vehicle>
    <vehicle id="42" depart="54.70">
        <route edges="C1 C2 E3 E4 E5 E6 E7 E8 9 10 11 0 1 2 3 4 5"/>
    </vehicle>
    <vehicle id="43" depart="56.01">
        <route edges="E9 5 6 7 8 9 10 11 E0 E1 E2 E3 E4 E5 C6"/>
    </vehicle>
    <vehicle id="44" depart="57.31">
        <route edges="11 0 1"/>
    </vehicle>
    <vehicle id="45" depart="58.61">
        <route edges="11 E0"/>
    </vehicle>
    <vehicle id="46" depart="59.91">
        <route edges="E3 E4 E5 C6 C7 C8 C9 C10"/>
    </vehicle>
    <vehicle id="47" depart="61.22">
        <route edges="10 11 E0 E1 E2 E3 E4 E5 C6 C7 C8 C9 C10 C11 C0"/>
    </vehicle>
    <vehicle id="48" depart="62.52">
        <route edges="E9 5 6 7 8 9 10 11 E0 E1 E2 E3 E4 E5 C6"/>
    </vehicle>
    <vehicle id="49" depart="63.82">
        <route edges="E9 5 6 7 8 9 10 11 E0 E1 E2 E3 E4"/>
    </vehicle>
    <vehicle id="50" depart="65.12">
        <route edges="0 1 2 3 4 5 6 7 8 9 E11"/>
    </vehicle>
    <vehicle id="51" depart="66.43">
        <route edges="E12 11 E0 E1 E2 E3 E4 E5 C6 C7"/>
    </vehicle>
    <vehicle id="52" depart="67.73">
        <route edges="7 8 9 10 11 E0"/>
    </vehicle>
    <vehicle id="53" depart="69.03">
        <route edges="11 E0 E1 E2 E3 E4 E5 C6 C7 C8 C9 C10"/>
    </vehicle>
    <vehicle id="54" depart="70.33">
        <route edges="C11 C0 C1 C2 E3 E4 E5 E6 E7"/>
    </vehicle>
    <vehicle id="55" depart="71.64">
        <route edges="E5 E6 E7 E8 9 10 11 0 1 2 3 4 5 6"/>
    </vehicle>
    <vehicle id="56" depart="72.94">
        <route edges="C6 C7 C8 C9 C10 C11 C0 C1 C2 E3 E4 E5 E6 E7 E8 9 10 11 0 1 2 3 4"/>
    </vehicle>
    <vehicle id="57" depart="74.24">
        <route edges="E7 E8 9 10 11 E0 E1 E2 E3 E4"/>
    </vehicle>
    <vehicle id="58" depart="75.54">
        <route edges="8 9 10 11 E0"/>
    </vehicle>
    <vehicle id="59" depart="76.85">
        <route edges="C9 C10 C11 C0 C1 C2 E3 E4 E5 E6 E7 E8 9 10 11 0 1 2 3"/>
    </vehicle>
    <vehicle id="60" depart="78.15">
        <route edges="E2 E3 E4 E5 C6 C7"/>
    </vehicle>
    <vehicle id="61" depart="79.45">
        <route edges="E3 E4 E5 C6 C7"/>
    </vehicle>
    <vehicle id="62" depart="80.75">
        <route edges="0 1 2 3 4 5 6 7 8 9"/>
    </vehicle>
    <vehicle id="63" depart="82.06">
        <route edges="0 1 2 3 4 5 6 7 8 9 10 11 E0 E1 E2 E3 E4 E5 E6"/>
    </vehicle>
    <vehicle id="64" depart="83.36">
        <route edges="E5 E6 E7 E8 9 10 11 E0 E1 E2 E3"/>
    </vehicle>
    <vehicle id="65" depart="84.66">
        <route edges="8 9 10 11 0 1"/>
    </vehicle>
    <vehicle id="66" depart="85.96">
        <route edges="E5 E6 E7"/>
    </vehicle>
    <vehicle id="67" depart="87.27">
        <route edges="10 11 E0 E1 E2 E3 E4 E5 C6 C7 C8 C9 C10 C11 C0 C1 C2"/>
    </vehicle>
    <vehicle id="68" depart="88.57">
        <route edges="10 11 E0 E1 E2 E3 E14"/>
    </vehicle>
    <vehicle id="69" depart="89.87">
        <route edges="E3 E4 E5 E6 E7 E8 9 10 11 0 1 2"/>
    </vehicle>
    <vehicle id="70" depart="91.17">
        <route edges="C2 E3 E4 E5 C6 C7"/>
    </vehicle>
    <vehicle id="71" depart="92.48">
        <route edges="7 8 9 10 11 E0 E1 E2 E3 E4"/>
    </vehicle>
    <vehicle id="72" depart="93.78">
        <route edges="C10 C11 C0 C1 C2 E3 E4 E5 E6 E7 E8 9 10 11 0 1 2 3 4 5"/>
    </vehicle>
    <vehicle id="73" depart="95.08">
        <route edges="C7 C8 C9 C10 C11 C0 C1 C2 E3 E4 E5 E6 E7 E8 9 E11"/>
    </vehicle>
    <vehicle id="74" depart="96.38">
        <route edges="4 5 6 7 8"/>
    </vehicle>
    <vehicle id="75" depart="97.69">
        <route edges="E9 5 6 7 8 9 10 11 E0 E1"/>
    </vehicle>
    <vehicle id="76" depart="98.99">
        <route edges="C10 C11 C0 C1 C2 E3 E4 E5 C6"/>
    </vehicle>
    <vehicle id="77" depart="100.29">
        <route edges="2 3 4 5"/>
    </vehicle>
    <vehicle id="78" depart="101.59">
        <route edges="9 10 11 E0 E1 E2 E3 E4 E5 C6 C7 C8 C9"/>
    </vehicle>
    <vehicle id="79" depart="102.90">
        <route edges="5"/>
    </vehicle>
    <vehicle id="80" depart="104.20">
        <route edges="10 11 E0"/>
    </vehicle>
    <vehicle id="81" depart="105.50">
        <route edges="5 6 7 8 9 10 11 E0 E1 E2 E3 E4 E5"/>
    </vehicle>
    <vehicle id="82" depart="106.80">
        <route edges="E5 E6 E7 E8 9 10"/>
    </vehicle>
    <vehicle id="83" depart="108.11">
        <route edges="6 7 8 9 10 11 E0 E1"/>
    </vehicle>
    <vehicle id="84" depart="109.41">
        <route edges="5 6 7 8 9 10 11 0 1 2"/>
    </vehicle>
    <vehicle id="85" depart="110.71">
        <route edges="E7 E8 9 10 11 E0 E1 E2 E3 E4 E5 C6 C7 C8"/>
    </vehicle>
    <vehicle id="86" depart="112.01">
        <route edges="C2 E3 E4 E5 E6 E7 E8 9 10 11 E0 E1 E2"/>
    </vehicle>
    <vehicle id="87" depart="113.32">
        <route edges="E30 C11 C0 C1 C2 E3 E4 E5 E6 E7 E8 9 10 11 0 1 2 3 4"/>
    </vehicle>
    <vehicle id="88" depart="114.62">
        <route edges="11 E0 E1 E2 E3 E4 E5 C6 C7 C8 C9 C10"/>
    </vehicle>
    <vehicle id="89" depart="115.92">
        <route edges="C10 C11"/>
    </vehicle>
    <vehicle id="90" depart="117.22">
        <route edges="E13 E5 E6 E7 E8 9 10 11 E0 E1"/>
    </vehicle>
    <vehicle id="91" depart="118.52">
        <route edges="E9 5 6 7 8 9 10 11"/>
    </vehicle>
    <vehicle id="92" depart="119.83">
        <route edges="C1 C2 E3 E4 E5 E6 E7 E8 9"/>
    </vehicle>
    <vehicle id="93" depart="121.13">
        <route edges="E5 E6 E7 E8 9 10 11 0 1 2 3 4 5 6"/>
    </vehicle>
    <vehicle id="94" depart="122.43">
        <route edges="4 5 6 7 8 9 10 11 E0 E1 E2 E3 E4 E5 C6 C7 C8 C9 C10 C11"/>
    </vehicle>
    <vehicle id="95" depart="123.73">
        <route edges="C10 C11 C0 C1 C2 E3 E4 E5 E6 E7 E8 9 10 11 0 1 2 3 4 5 6 7"/>
    </vehicle>
    <vehicle id="96" depart="125.04">
        <route edges="6 7 8 9 10 11 E0 E1 E2 E3 E4 E5 E6"/>
    </vehicle>
    <vehicle id="97" depart="126.34">
        <route edges="C11 C0 C1 C2 E3 E4"/>
    </vehicle>
    <vehicle id="98" depart="127.64">
        <route edges="C7 C8 C9 C10 C11 C0 C1 C2 E3 E4 E5 E6 E7 E8 9 10 11 0 1"/>
    </vehicle>
    <vehicle id="99" depart="128.94">
        <route edges="E9 5 6 7 8 9 10 11 E0 E1 E2 E3"/>
    </vehicle>
    <vehicle id="100" depart="130.25">
        <route edges="E8 9 10 11 E0 E1 E2 E3 E4 E5 E6"/>
    </vehicle>
    <vehicle id="101" depart="131.55">
        <route edges="E4 E5 E6 E7 E8 9 10 11 0 1 2 3"/>
    </vehicle>
    <vehicle id="102" depart="132.85">
        <route edges="C2 E3 E4 E5 E6 E7 E8 9 10 11 0 1 2 3 4 5"/>
    </vehicle>
    <vehicle id="103" depart="134.15">
        <route edges="C1 C2 E3 E4 E5 E6 E7 E8 9 10 11 0 1"/>
    </vehicle>
    <vehicle id="104" depart="135.46">
        <route edges="C0 C1 C2 E3 E4 E5 E6 E7 E8"/>
    </vehicle>
    <vehicle id="105" depart="136.76">
        <route edges="7 8 9 10 11 E0 E1 E2"/>
    </vehicle>
    <vehicle id="106" depart="138.06">
        <route edges="C11 C0 C1 C2 E3 E4 E5 C6 C7 C8 C9 C10"/>
    </vehicle>
    <vehicle id="107" depart="139.36">
        <route edges="E8"/>
    </vehicle>
    <vehicle id="108" depart="140.67">
        <route edges="C7 C8 C9 C10 C11 C0 C1 C2 E3 E4 E5 E6 E7 E8 9 E11"/>
    </vehicle>
    <vehicle id="109" depart="141.97">
        <route edges="3 4 5 6 7 8"/>
    </vehicle>
    <vehicle id="110" depart="143.27">
        <route edges="E8 9 10 11 E0 E1 E2 E3 E4 E5 C6 C7 C8"/>
    </vehicle>
    <vehicle id="111" depart="144.57">
        <route edges="C7 C8 C9 C10 C11 C0 C1 C2 E3 E14"/>
    </vehicle>
    <vehicle id="112" depart="145.88">
        <route edges="1 2 3 4 5 6 7 8 9 10 11 E0 E1 E2 E3 E4 E5 C6 C7 C8"/>
    </vehicle>
    <vehicle id="113" depart="147.18">
        <route edges="C6 C7 C8 C9 C10 C11 C0 C1 C2 E3"/>
    </vehicle>
    <vehicle id="114" depart="148.48">
        <route edges="3 4 5 6 7 8 9 10 11 E0 E1 E2 E3 E4 E5 E6 E7"/>
    </vehicle>
    <vehicle id="115" depart="149.78">
        <route edges="10 11 0 1 2 3 4"/>
    </vehicle>
    <vehicle id="116" depart="151.09">
        <route edges="C9 C10 C11 C0 C1 C2 E3 E4 E5 E6 E7 E8 9 10 11 E0 E1"/>
    </vehicle>
    <vehicle id="117" depart="152.39">
        <route edges="5 6 7 8 9 10 11 0 1 2"/>
    </vehicle>
    <vehicle id="118" depart="153.69">
        <route edges="E6 E7 E8 9 10 11 0 1 2 3 4 5 6"/>
    </vehicle>
    <vehicle id="119" depart="154.99">
        <route edges="C9 C10 C11 C0 C1 C2 E3 E4 E5 E6 E7 E8 9 10 11 E0"/>
    </vehicle>
    <vehicle id="120" depart="156.30">
        <route edges="C10 C11 C0 C1 C2 E3 E4 E5 C6 C7 C8"/>
    </vehicle>
    <vehicle id="121" depart="157.60">
        <route edges="C6 C7 C8 C9 C10 C11 C0 C1 C2 E3 E4 E5 E6"/>
    </vehicle>
    <vehicle id="122" depart="158.90">
        <route edges="4 5 6 7 8 9 E11"/>
    </vehicle>
    <vehicle id="123" depart="160.20">
        <route edges="6 7 8 9 10 11 E0 E1 E2 E3 E4 E5 C6 C7 C8 C9 C10 C11 C0 C1"/>
    </vehicle>
    <vehicle id="124" depart="161.51">
        <route edges="E1 E2 E3 E4 E5 E6 E7 E8 9 10 11 0 1 2 3 4 5 6 7 8"/>
    </vehicle>
    <vehicle id="125" depart="162.81">
        <route edges="8 9 10 11 E0 E1 E2 E3 E14"/>
    </vehicle>
    <vehicle id="126" depart="164.11">
        <route edges="10 11 E0 E1 E2 E3 E4 E5 C6 C7 C8 C9 C10 C11"/>
    </vehicle>
    <vehicle id="127" depart="165.41">
        <route edges="E9 5 6 7 8 9 10 11 E0 E1 E2 E3 E4 E5 E6 E7 E8"/>
    </vehicle>
    <vehicle id="128" depart="166.72">
        <route edges="10 11 0 1 2 3 4 5"/>
    </vehicle>
    <vehicle id="129" depart="168.02">
        <route edges="7 8 9 10 11 E0 E1 E2 E3 E4 E5 E6"/>
    </vehicle>
    <vehicle id="130" depart="169.32">
        <route edges="E5 E6 E7 E8 9 10 11 E0 E1 E2 E3 E4"/>
    </vehicle>
    <vehicle id="131" depart="170.62">
        <route edges="C0 C1 C2 E3 E4 E5 E6 E7 E8 9 10 11 0 1 2 3"/>
    </vehicle>
    <vehicle id="132" depart="171.93">
        <route edges="E4 E5 E6 E7 E8 9 10 11 0 1 2 3 E10"/>
    </vehicle>
    <vehicle id="133" depart="173.23">
        <route edges="C9 C10 C11 C0 C1 C2 E3 E4 E5 E6 E7 E8"/>
    </vehicle>
    <vehicle id="134" depart="174.53">
        <route edges="E1 E2 E3 E4 E5 E6 E7 E8 9 10 11 0"/>
    </vehicle>
    <vehicle id="135" depart="175.83">
        <route edges="E30 C11 C0 C1 C2 E3 E4 E5 E6 E7 E8 9 10 11 0 1 2 3 4 5 6 7 8"/>
    </vehicle>
    <vehicle id="136" depart="177.14">
        <route edges="E1 E2 E3 E4 E5 E6"/>
    </vehicle>
    <vehicle id="137" depart="178.44">
        <route edges="2 3 4 5 6 7 8 9 10 11"/>
    </vehicle>
    <vehicle id="138" depart="179.74">
        <route edges="11 E0 E1 E2 E3 E4 E5 C6 C7"/>
    </vehicle>
    <vehicle id="139" depart="181.04">
        <route edges="7 8 9 10 11 E0 E1 E2 E3 E4 E5 C6 C7 C8 C9"/>
    </vehicle>
    <vehicle id="140" depart="182.35">
        <route edges="E13 E5 E6 E7 E8 9 10 11 0 1 2 3 4"/>
    </vehicle>
    <vehicle id="141" depart="183.65">
        <route edges="E0 E1 E2 E3 E4 E5 E6 E7 E8 9 10 11 0 1 2 3 4 5 6"/>
    </vehicle>
    <vehicle id="142" depart="184.95">
        <route edges="C2 E3 E4 E5"/>
    </vehicle>
    <vehicle id="143" depart="186.25">
        <route edges="E4 E5 E6 E7 E8 9 10 11"/>
    </vehicle>
    <vehicle id="144" depart="187.56">
        <route edges="C10 C11 C0 C1 C2 E3 E4 E5 E6 E7 E8 9 10 11 0 1 2 3 4 5 6 7"/>
    </vehicle>
    <vehicle id="145" depart="188.86">
        <route edges="0 1 2 3 4 5 6 7 8 9 10 11 E0 E1 E2"/>
    </vehicle>
    <vehicle id="146" depart="190.16">
        <route edges="E0 E1 E2 E3 E4 E5 E6 E7 E8 9 10 11 0 1 2 3 4 5 6"/>
    </vehicle>
    <vehicle id="147" depart="191.46">
        <route edges="E2 E3 E4 E5 C6 C7"/>
    </vehicle>
    <vehicle id="148" depart="192.77">
        <route edges="C10 C11 C0 C1 C2 E3 E4 E5 E6 E7 E8 9 10 11 0"/>
    </vehicle>
    <vehicle id="149" depart="194.07">
        <route edges="10 11 E0 E1 E2 E3 E4 E5"/>
    </vehicle>
    <vehicle id="150" depart="195.37">
        <route edges="E6 E7 E8 9 10 11 E0 E1 E2 E3 E4 E5 C6 C7"/>
    </vehicle>
    <vehicle id="151" depart="196.67">
        <route edges="E4 E5 C6 C7 C8"/>
    </vehicle>
    <vehicle id="152" depart="197.98">
        <route edges="3 4 5 6 7 8 9 10 11 0 1 2"/>
    </vehicle>
    <vehicle id="153" depart="199.28">
        <route edges="8 9 10 11 E0 E1 E2 E3 E4 E5"/>
    </vehicle>
    <vehicle id="154" depart="200.58">
        <route edges="E30 C11 C0 C1 C2 E3 E4"/>
    </vehicle>
    <vehicle id="155" depart="201.88">
        <route edges="E6 E7 E8 9 10 11 0 1 2 3 4 5"/>
    </vehicle>
    <vehicle id="156" depart="203.19">
        <route edges="6 7 8 9 10 11"/>
    </vehicle>
    <vehicle id="157" depart="204.49">
        <route edges="E3 E4 E5"/>
    </vehicle>
    <vehicle id="158" depart="205.79">
        <route edges="C1 C2 E3 E4 E5 E6 E7 E8 9 10 11 E0"/>
    </vehicle>
    <vehicle id="159" depart="207.09">
        <route edges="3 4 5 6 7 8 9 10 11 E0 E1 E2 E3 E4 E5 E6"/>
    </vehicle>
    <vehicle id="160" depart="208.40">
        <route edges="E5 E6 E7 E8"/>
    </vehicle>
    <vehicle id="161" depart="209.70">
        <route edges="E30 C11 C0 C1 C2 E3 E4"/>
    </vehicle>
    <vehicle id="162" depart="211.00">
        <route edges="0 1 2 3 4 5 6 7 8 9 10 11 E0 E1 E2 E3 E14"/>
    </vehicle>
    <vehicle id="163" depart="212.30">
        <route edges="9 10 11 E0 E1 E2 E3 E4 E5 E6"/>
    </vehicle>
    <vehicle id="164" depart="213.61">
        <route edges="E30 C11 C0 C1 C2 E3 E4"/>
    </vehicle>
    <vehicle id="165" depart="214.91">
        <route edges="E30 C11 C0 C1 C2 E3 E4 E5 E6 E7 E8 9 10 11 0 1 2 3 4 5 6 7"/>
    </vehicle>
    <vehicle id="166" depart="216.21">
        <route edges="E3 E4 E5 E6 E7 E8 9 10 11"/>
    </vehicle>
    <vehicle id="167" depart="217.51">
        <route edges="E5 E6 E7 E8 9 10 11 E0 E1 E2 E3 E4"/>
    </vehicle>
    <vehicle id="168" depart="218.82">
        <route edges="5 6 7 8 9 10 11 E0 E1 E2 E3 E4 E5 C6 C7 C8 C9 E29"/>
    </vehicle>
    <vehicle id="169" depart="220.12">
        <route edges="C11 C0 C1 C2 E3 E4 E5 E6 E7 E8 9 10 11 0 1 2 3 4 5 6 7 8"/>
    </vehicle>
    <vehicle id="170" depart="221.42">
        <route edges="E30 C11 C0 C1 C2 E3 E4 E5 E6 E7 E8 9 10 11 0 1 2 3 4 5"/>
    </vehicle>
    <vehicle id="171" depart="222.72">
        <route edges="0 1 2 3 4"/>
    </vehicle>
    <vehicle id="172" depart="224.03">
        <route edges="9 10 11 E0 E1 E2 E3 E4"/>
    </vehicle>
    <vehicle id="173" depart="225.33">
        <route edges="E8 9 10 11 0 1 2 3 4 5 6 7"/>
    </vehicle>
    <vehicle id="174" depart="226.63">
        <route edges="E0 E1 E2 E3 E4 E5 C6 C7 C8 C9 C10 C11 C0 C1"/>
    </vehicle>
    <vehicle id="175" depart="227.93">
        <route edges="E9 5 6 7 8 9 10 11 E0 E1 E2 E3 E4 E5 C6 C7"/>
    </vehicle>
    <vehicle id="176" depart="229.23">
        <route edges="E7 E8 9 10 11"/>
    </vehicle>
    <vehicle id="177" depart="230.54">
        <route edges="E8 9 10 11 0 1 2 3 4"/>
    </vehicle>
    <vehicle id="178" depart="231.84">
        <route edges="E8 9 10 11 0 1 2 3 4 5 6 7"/>
    </vehicle>
    <vehicle id="179" depart="233.14">
        <route edges="11 E0 E1 E2 E3 E4 E5 C6 C7 C8 C9 C10"/>
    </vehicle>
    <vehicle id="180" depart="234.44">
        <route edges="E13 E5 E6 E7 E8 9 10 11 0 1 2 3 4 5 6 7 8"/>
    </vehicle>
    <vehicle id="181" depart="235.75">
        <route edges="C9 C10 C11 C0 C1 C2 E3 E4 E5 C6"/>
    </vehicle>
    <vehicle id="182" depart="237.05">
        <route edges="C1 C2 E3 E4 E5 C6 C7 C8"/>
    </vehicle>
    <vehicle id="183" depart="238.35">
        <route edges="6 7 8 9 E11"/>
    </vehicle>
    <vehicle id="184" depart="239.65">
        <route edges="0 1 2 3 4 5 6 7 8 9 10 11 E0 E1 E2 E3 E4 E5 E6"/>
    </vehicle>
    <vehicle id="185" depart="240.96">
        <route edges="C7 C8 C9 C10 C11 C0 C1 C2 E3 E4 E5 E6 E7 E8 9 E11"/>
    </vehicle>
    <vehicle id="186" depart="242.26">
        <route edges="E2 E3 E4 E5 E6 E7 E8 9 10 11 E0 E1"/>
    </vehicle>
    <vehicle id="187" depart="243.56">
        <route edges="C0 C1 C2 E3 E4 E5 E6 E7 E8 9 10"/>
    </vehicle>
    <vehicle id="188" depart="244.86">
        <route edges="E1 E2 E3 E4 E5 E6 E7 E8 9"/>
    </vehicle>
    <vehicle id="189" depart="246.17">
        <route edges="8 9 10 11 E0 E1 E2 E3"/>
    </vehicle>
    <vehicle id="190" depart="247.47">
        <route edges="E13 E5 E6 E7 E8 9 10 11 0 1 2 3 4 5 6 7 8"/>
    </vehicle>
    <vehicle id="191" depart="248.77">
        <route edges="8 9 10 11 E0 E1 E2 E3 E4 E5 C6 C7 C8 C9 C10 C11 C0 C1"/>
    </vehicle>
    <vehicle id="192" depart="250.07">
        <route edges="C1 C2 E3 E4 E5 E6 E7 E8 9 10 11 0 1 2 3 4 5 6 7 8"/>
    </vehicle>
    <vehicle id="193" depart="251.38">
        <route edges="2 3 4 5 6 7 8 9 10 11 E0 E1 E2 E3 E4 E5 C6 C7 C8 C9 C10"/>
    </vehicle>
    <vehicle id="194" depart="252.68">
        <route edges="E7 E8 9 10 11 0 1 2 3 E10"/>
    </vehicle>
    <vehicle id="195" depart="253.98">
        <route edges="E6 E7 E8 9 10 11 E0 E1 E2 E3 E4 E5 C6 C7 C8 C9"/>
    </vehicle>
    <vehicle id="196" depart="255.28">
        <route edges="8 9 10 11 E0 E1 E2 E3 E4 E5 C6 C7"/>
    </vehicle>
    <vehicle id="197" depart="256.59">
        <route edges="0 1 2 3 4 5 6 7"/>
    </vehicle>
    <vehicle id="198" depart="257.89">
        <route edges="C10 C11 C0 C1 C2 E3 E4 E5 C6 C7 C8"/>
    </vehicle>
    <vehicle id="199" depart="259.19">
        <route edges="E1 E2 E3 E4 E5 C6 C7 C8 C9 C10 C11"/>
    </vehicle>
    <vehicle id="200" depart="260.49">
        <route edges="C11 C0 C1 C2 E3 E4 E5 E6 E7 E8 9 10 11 0 1 2 3 4 5"/>
    </vehicle>
    <vehicle id="201" depart="261.80">
        <route edges="C2 E3 E4 E5"/>
    </vehicle>
    <vehicle id="202" depart="263.10">
        <route edges="E30 C11 C0 C1 C2 E3 E4 E5 E6 E7 E8 9 10 11 0 1 2 3"/>
    </vehicle>
    <vehicle id="203" depart="264.40">
        <route edges="10 11 E0 E1 E2 E3 E4 E5 C6"/>
    </vehicle>
    <vehicle id="204" depart="265.70">
        <route edges="E0 E1 E2 E3 E4 E5 E6 E7 E8 9"/>
    </vehicle>
    <vehicle id="205" depart="267.01">
        <route edges="E30 C11 C0 C1 C2 E3 E14"/>
    </vehicle>
    <vehicle id="206" depart="268.31">
        <route edges="E1 E2 E3 E4 E5 E6 E7 E8 9 10 11 0 1 2 3 4 5"/>
    </vehicle>
    <vehicle id="207" depart="269.61">
        <route edges="4 5 6 7 8 9 10 11 0"/>
    </vehicle>
    <vehicle id="208" depart="270.91">
        <route edges="6 7 8 9 10 11 E0 E1 E2 E3 E4 E5 C6 C7 C8 C9 C10 C11 C0 C1 C2"/>
    </vehicle>
    <vehicle id="209" depart="272.22">
        <route edges="E4 E5 E6 E7 E8 9 10"/>
    </vehicle>
    <vehicle id="210" depart="273.52">
        <route edges="C10 C11 C0 C1 C2 E3 E4 E5 E6 E7 E8 9 10 11 E0"/>
    </vehicle>
    <vehicle id="211" depart="274.82">
        <route edges="4 5 6 7 8 9 10 11 0 1 2 3 E10"/>
    </vehicle>
    <vehicle id="212" depart="276.12">
        <route edges="C2 E3 E4 E5 E6 E7 E8 9 10 11 0 1 2 3 4 5 6"/>
    </vehicle>
    <vehicle id="213" depart="277.43">
        <route edges="E1 E2 E3 E4 E5 E6 E7 E8 9 10 11 0"/>
    </vehicle>
    <vehicle id="214" depart="278.73">
        <route edges="E2"/>
    </vehicle>
    <vehicle id="215" depart="280.03">
        <route edges="11 E0 E1 E2 E3 E4 E5 C6 C7 C8 C9 C10"/>
    </vehicle>
    <vehicle id="216" depart="281.33">
        <route edges="3 4 5 6 7 8 9 10 11 E0 E1 E2 E3 E4 E5 E6 E7"/>
    </vehicle>
    <vehicle id="217" depart="282.64">
        <route edges="C6 C7 C8 C9 C10 C11 C0 C1 C2 E3 E4 E5 E6 E7 E8 9 10 11 0 1"/>
    </vehicle>
    <vehicle id="218" depart="283.94">
        <route edges="6 7 8 9 10 11 E0 E1 E2 E3"/>
    </vehicle>
    <vehicle id="219" depart="285.24">
        <route edges="C11 C0 C1 C2 E3 E4 E5 C6 C7 C8 C9 E29"/>
    </vehicle>
    <vehicle id="220" depart="286.54">
        <route edges="E1 E2 E3 E4 E5 E6 E7 E8"/>
    </vehicle>
    <vehicle id="221" depart="287.85">
        <route edges="C9 C10 C11 C0 C1 C2 E3 E4 E5 E6 E7"/>
    </vehicle>
    <vehicle id="222" depart="289.15">
        <route edges="E6 E7 E8 9 10 11 E0 E1 E2 E3 E4 E5 C6 C7 C8 C9"/>
    </vehicle>
    <vehicle id="223" depart="290.45">
        <route edges="E13 E5 C6"/>
    </vehicle>
    <vehicle id="224" depart="291.75">
        <route edges="E4 E5 C6 C7"/>
    </vehicle>
    <vehicle id="225" depart="293.06">
        <route edges="E6 E7 E8 9 10 11 E0 E1 E2 E3 E14"/>
    </vehicle>
    <vehicle id="226" depart="294.36">
        <route edges="C2 E3 E4 E5 E6 E7 E8 9 10 11 0 1 2 3 4 5 6"/>
    </vehicle>
    <vehicle id="227" depart="295.66">
        <route edges="6 7 8 9 10 11 E0"/>
    </vehicle>
    <vehicle id="228" depart="296.96">
        <route edges="E3 E4 E5 C6"/>
    </vehicle>
    <vehicle id="229" depart="298.27">
        <route edges="E0 E1 E2 E3 E4 E5 E6 E7 E8 9 10 11 0 1 2 3 4 5 6 7"/>
    </vehicle>
    <vehicle id="230" depart="299.57">
        <route edges="10 11 0 1 2 3 4 5 6 7"/>
    </vehicle>
    <vehicle id="231" depart="300.87">
        <route edges="7 8"/>
    </vehicle>
    <vehicle id="232" depart="302.17">
        <route edges="C7 C8 C9 C10 C11 C0 C1 C2 E3 E4 E5 E6 E7 E8 9 10 11 0 1 2"/>
    </vehicle>
    <vehicle id="233" depart="303.48">
        <route edges="5 6 7 8 9 10 11 0 1 2 3 E10"/>
    </vehicle>
    <vehicle id="234" depart="304.78">
        <route edges="E13 E5 E6 E7 E8 9 10"/>
    </vehicle>
    <vehicle id="235" depart="306.08">
        <route edges="C1 C2 E3 E4 E5 C6 C7"/>
    </vehicle>
    <vehicle id="236" depart="307.38">
        <route edges="C10 C11 C0 C1 C2 E3 E4 E5 E6 E7 E8 9 10 11 0 1 2 3 4 5"/>
    </vehicle>
    <vehicle id="237" depart="308.69">
        <route edges="C10 C11 C0 C1 C2 E3 E4 E5"/>
    </vehicle>
    <vehicle id="238" depart="309.99">
        <route edges="C8 C9 C10 C11 C0 C1 C2 E3 E4 E5 E6 E7 E8 9 10 11 0 1 2 3 E10"/>
    </vehicle>
    <vehicle id="239" depart="311.29">
        <route edges="E5 E6 E7 E8 9 10 11 E0 E1 E2"/>
    </vehicle>
    <vehicle id="240" depart="312.59">
        <route edges="C0 C1 C2 E3 E4 E5 E6 E7 E8 9 10 11 0"/>
    </vehicle>
    <vehicle id="241" depart="313.90">
        <route edges="9 10 11 E0 E1 E2 E3 E14"/>
    </vehicle>
    <vehicle id="242" depart="315.20">
        <route edges="E5 E6 E7"/>
    </vehicle>
    <vehicle id="243" depart="316.50">
        <route edges="C10 C11 C0 C1 C2 E3 E14"/>
    </vehicle>
    <vehicle id="244" depart="317.80">
        <route edges="C7 C8 C9"/>
    </vehicle>
    <vehicle id="245" depart="319.11">
        <route edges="5"/>
    </vehicle>
    <vehicle id="246" depart="320.41">
        <route edges="C10 C11 C0 C1 C2 E3 E4 E5 E6 E7 E8 9 10 11 0"/>
    </vehicle>
    <vehicle id="247" depart="321.71">
        <route edges="9 10 11 0 1 2 3 E10"/>
    </vehicle>
    <vehicle id="248" depart="323.01">
        <route edges="C1 C2 E3 E4 E5 E6 E7 E8 9 10 11 0 1 2 3"/>
    </vehicle>
    <vehicle id="249" depart="324.32">
        <route edges="C11 C0 C1 C2 E3 E4 E5 E6 E7 E8 9 10 11 0 1 2"/>
    </vehicle>
    <vehicle id="250" depart="325.62">
        <route edges="E0 E1 E2 E3 E4 E5 E6 E7 E8 9 10 11 0"/>
    </vehicle>
    <vehicle id="251" depart="326.92">
        <route edges="C1 C2 E3 E4 E5 C6 C7 C8"/>
    </vehicle>
    <vehicle id="252" depart="328.22">
        <route edges="0 1 2 3 4 5 6 7 8 9 10 11 E0"/>
    </vehicle>
    <vehicle id="253" depart="329.53">
        <route edges="2 3 4 5 6 7 8 9 10 11 E0 E1 E2 E3 E4 E5 C6 C7 C8 C9 C10 C11"/>
    </vehicle>
    <vehicle id="254" depart="330.83">
        <route edges="1 2 3 4 5 6 7 8 9 10 11 E0 E1 E2 E3 E4 E5 C6 C7 C8 C9 C10 C11 C0"/>
    </vehicle>
    <vehicle id="255" depart="332.13">
        <route edges="5 6 7 8 9"/>
    </vehicle>
    <vehicle id="256" depart="333.43">
        <route edges="E2 E3 E4 E5 C6 C7 C8 C9 C10 C11 C0"/>
    </vehicle>
    <vehicle id="257" depart="334.74">
        <route edges="E2 E3"/>
    </vehicle>
    <vehicle id="258" depart="336.04">
        <route edges="6 7 8 9 10"/>
    </vehicle>
    <vehicle id="259" depart="337.34">
        <route edges="0 1 2 3 4 5 6 7 8 9 10 11 E0 E1 E2 E3 E4 E5 C6 C7"/>
    </vehicle>
    <vehicle id="260" depart="338.64">
        <route edges="E9 5 6 7 8 9"/>
    </vehicle>
    <vehicle id="261" depart="339.95">