<?xml version="1.0" encoding="UTF-8"?>

<!-- generated on 2024-08-02 12:09:19.840348 by randomtrips.py v1_14_1+0000-f654d7b963e
<configuration>
    <end value="3000"/>
    <insertion-density value="29.0"/>
    <net-file value="scenario3/sumo/ring.net.xml"/>
    <route-file value="scenario3/sumo/traffic29.rou.xml"/>
</configuration>
-->

<!-- generated on 2024-08-02 12:09:19 by Eclipse SUMO duarouter Version 1.14.1
<configuration xmlns:xsi="http://www.w3.org/2001/XMLSchema-instance" xsi:noNamespaceSchemaLocation="http://sumo.dlr.de/xsd/duarouterConfiguration.xsd">

    <input>
        <net-file value="scenario3/sumo/ring.net.xml"/>
        <route-files value="trips.trips.xml"/>
    </input>

    <output>
        <output-file value="scenario3/sumo/traffic29.rou.xml"/>
        <alternatives-output value="NUL"/>
    </output>

    <time>
        <begin value="0"/>
        <end value="3000"/>
    </time>

    <report>
        <no-warnings value="true"/>
        <ignore-errors value="true"/>
        <no-step-log value="true"/>
    </report>

</configuration>
-->

<routes xmlns:xsi="http://www.w3.org/2001/XMLSchema-instance" xsi:noNamespaceSchemaLocation="http://sumo.dlr.de/xsd/routes_file.xsd">
    <vehicle id="0" depart="0.00">
        <route edges="E0 E1 E2 E3 E4 E5 E6 E7 E8 9 10 11 0"/>
    </vehicle>
    <vehicle id="1" depart="4.32">
        <route edges="7 8 9 10 11 0 1 2 3 4 5"/>
    </vehicle>
    <vehicle id="2" depart="8.64">
        <route edges="E2 E3 E4 E5 E6 E7 E8 9 10 11 0 1 2 3 E10"/>
    </vehicle>
    <vehicle id="3" depart="12.96">
        <route edges="E6 E7 E8 9 10"/>
    </vehicle>
    <vehicle id="4" depart="17.28">
        <route edges="C2 C3 C4 C5 C6 C7 C8 9 10 11 0 1"/>
    </vehicle>
    <vehicle id="5" depart="21.60">
        <route edges="5 6 7 8 9 10 11 C0 C1 C2 C3 C4 C5"/>
    </vehicle>
    <vehicle id="6" depart="25.92">
        <route edges="0 1 2 3 4"/>
    </vehicle>
    <vehicle id="7" depart="30.24">
        <route edges="E1 E2 E3 E4 E5 E6 E7 E8 9 10 11 C0 C1 C2 C3 C4 C5 C6"/>
    </vehicle>
    <vehicle id="8" depart="34.56">
        <route edges="5 6 7 8 9 10 11 C0 C1 C2 C3 C4 C5 C6 C7 C8"/>
    </vehicle>
    <vehicle id="9" depart="38.88">
        <route edges="E3 E4 E5 E6 E7 E8 9 10 11 0"/>
    </vehicle>
    <vehicle id="10" depart="43.20">
        <route edges="E3 E4 E5 E6 E7 E8 9 10 11 0 1 2 3 E10"/>
    </vehicle>
    <vehicle id="11" depart="47.51">
        <route edges="9 10 11 0 1 2 3"/>
    </vehicle>
    <vehicle id="12" depart="51.83">
        <route edges="E8 9"/>
    </vehicle>
    <vehicle id="13" depart="56.15">
        <route edges="11"/>
    </vehicle>
    <vehicle id="14" depart="60.47">
        <route edges="E4 E5 E6 E7 E8 9 10 11 C0 C1 C2 C3 C4 C5 C6 C7 C8"/>
    </vehicle>
    <vehicle id="15" depart="64.79">
        <route edges="E3 E4 E5 E6 E7 E8 9 E11"/>
    </vehicle>
    <vehicle id="16" depart="69.11">
        <route edges="C6 C7 C8 9 10 11 E0 E1 E2 E3 E4 E5 E6 E7 E8"/>
    </vehicle>
    <vehicle id="17" depart="73.43">
        <route edges="C0 C1 C2 C3 C4 C5 C6"/>
    </vehicle>
    <vehicle id="18" depart="77.75">
        <route edges="E4 E5 E6 E7 E8 9 10 11 E0"/>
    </vehicle>
    <vehicle id="19" depart="82.07">
        <route edges="E5 E6 E7 E8 9 10 11 C0 C1 C2 C3 C4 C5 C6 C7"/>
    </vehicle>
    <vehicle id="20" depart="86.39">
        <route edges="E12 11 0 1"/>
    </vehicle>
    <vehicle id="21" depart="90.71">
        <route edges="5 6 7"/>
    </vehicle>
    <vehicle id="22" depart="95.03">
        <route edges="10 11 0 1 2 3 4 5"/>
    </vehicle>
    <vehicle id="23" depart="99.35">
        <route edges="11 0 1 2 3 4 5 6 7"/>
    </vehicle>
    <vehicle id="24" depart="103.67">
        <route edges="E0 E1 E2 E3 E4 E5 E6 E7 E8 9 10 11 C0"/>
    </vehicle>
    <vehicle id="25" depart="107.99">
        <route edges="C0 C1 C2 C3 C4 C5 C6 C7 C8 9 10 11 0 1 2 3 4 5"/>
    </vehicle>
    <vehicle id="26" depart="112.31">
        <route edges="7 8 9 10 11 E0 E1 E2 E3 E4 E5 E6"/>
    </vehicle>
    <vehicle id="27" depart="116.63">
        <route edges="E1 E2 E3 E4 E5 E6 E7 E8 9 10 11 C0 C1 C2 C3 C4 C5 C6 C7 C8"/>
    </vehicle>
    <vehicle id="28" depart="120.95">
        <route edges="3 4 5 6 7 8 9 E11"/>
    </vehicle>
    <vehicle id="29" depart="125.27">
        <route edges="3 4 5 6 7 8 9 10 11 C0"/>
    </vehicle>
    <vehicle id="30" depart="129.59">
        <route edges="E9 5 6 7 8 9 10 11 E0"/>
    </vehicle>
    <vehicle id="31" depart="133.91">
        <route edges="C6 C7 C8 9 10 11 0 1 2 3 E10"/>
    </vehicle>
    <vehicle id="32" depart="138.23">
        <route edges="E4 E5 E6 E7 E8 9 10 11 E0 E1 E2"/>
    </vehicle>
    <vehicle id="33" depart="142.54">
        <route edges="5 6 7 8 9 10 11 0 1"/>
    </vehicle>
    <vehicle id="34" depart="146.86">
        <route edges="8 9 10 11 0 1 2 3 4 5 6 7"/>
    </vehicle>
    <vehicle id="35" depart="151.18">
        <route edges="5 6 7 8 9 10 11 E0 E1 E2 E3 E4 E5 E6 E7"/>
    </vehicle>
    <vehicle id="36" depart="155.50">
        <route edges="E5 E6 E7 E8 9 10 11 0 1 2 3 4 5 6 7 8"/>
    </vehicle>
    <vehicle id="37" depart="159.82">
        <route edges="E1 E2 E3 E4 E5 E6 E7 E8 9 10 11 C0 C1"/>
    </vehicle>
    <vehicle id="38" depart="164.14">
        <route edges="E7 E8 9 10 11 C0 C1 C2 C3"/>
    </vehicle>
    <vehicle id="39" depart="168.46">
        <route edges="7 8 9 10 11 0 1 2 3 4 5 6"/>
    </vehicle>
    <vehicle id="40" depart="172.78">
        <route edges="C7 C8 9 10 11 0 1 2 3 4 5 6"/>
    </vehicle>
    <vehicle id="41" depart="177.10">
        <route edges="C7 C8 9 10 11 E0 E1 E2 E3 E4 E5"/>
    </vehicle>
    <vehicle id="42" depart="181.42">
        <route edges="C1 C2 C3 C4 C5 C6 C7 C8 9 10 11 0 1 2 3 4 5"/>
    </vehicle>
    <vehicle id="43" depart="185.74">
        <route edges="E9 5 6 7 8 9 10 11 C0 C1 C2 C3 C4 C5"/>
    </vehicle>
    <vehicle id="44" depart="190.06">
        <route edges="11 0 1"/>
    </vehicle>
    <vehicle id="45" depart="194.38">
        <route edges="11 E0"/>
    </vehicle>
    <vehicle id="46" depart="198.70">
        <route edges="E24 C5 C6 C7 C8 9 10 11 C0 C1 C2"/>
    </vehicle>
    <vehicle id="47" depart="203.02">
        <route edges="10 11 C0"/>
    </vehicle>
    <vehicle id="48" depart="207.34">
        <route edges="E9 5 6 7 8 9 10 11 C0 C1 C2 C3 C4 C5"/>
    </vehicle>
    <vehicle id="49" depart="211.66">
        <route edges="E9 5 6 7 8 9 10 11 E0 E1 E2 E3 E4"/>
    </vehicle>
    <vehicle id="50" depart="215.98">
        <route edges="0 1 2 3 4 5 6 7 8 9 E11"/>
    </vehicle>
    <vehicle id="51" depart="220.30">
        <route edges="E12 11 C0 C1 C2 C3 C4 C5 C6"/>
    </vehicle>
    <vehicle id="52" depart="224.62">
        <route edges="7 8 9 10 11 E0"/>
    </vehicle>
    <vehicle id="53" depart="228.94">
        <route edges="11 C0 C1 C2"/>
    </vehicle>
    <vehicle id="54" depart="233.25">
        <route edges="C3 C4 C5 C6 C7 C8 9 10 11 E0 E1 E2 E3 E4 E5 E6 E7"/>
    </vehicle>
    <vehicle id="55" depart="237.57">
        <route edges="E5 E6 E7 E8 9 10 11 0 1 2 3 4 5 6"/>
    </vehicle>
    <vehicle id="56" depart="241.89">
        <route edges="C5 C6 C7 C8 9 10 11 0 1 2 3 4"/>
    </vehicle>
    <vehicle id="57" depart="246.21">
        <route edges="E7 E8 9 10 11 E0 E1 E2 E3 E4"/>
    </vehicle>
    <vehicle id="58" depart="250.53">
        <route edges="8 9 10 11 E0"/>
    </vehicle>
    <vehicle id="59" depart="254.85">
        <route edges="C8 9 10 11 0 1 2 3"/>
    </vehicle>
    <vehicle id="60" depart="259.17">
        <route edges="E2 E3 E4 E5 E6 E7 E8 9 10 11 C0 C1 C2 C3 C4 C5 C6"/>
    </vehicle>
    <vehicle id="61" depart="263.49">
        <route edges="E24 C5 C6"/>
    </vehicle>
    <vehicle id="62" depart="267.81">
        <route edges="0 1 2 3 4 5 6 7 8 9"/>
    </vehicle>
    <vehicle id="63" depart="272.13">
        <route edges="0 1 2 3 4 5 6 7 8 9 10 11 E0 E1 E2 E3 E4 E5 E6"/>
    </vehicle>
    <vehicle id="64" depart="276.45">
        <route edges="E5 E6 E7 E8 9 10 11 E0 E1 E2 E3"/>
    </vehicle>
    <vehicle id="65" depart="280.77">
        <route edges="8 9 10 11 0 1"/>
    </vehicle>
    <vehicle id="66" depart="285.09">
        <route edges="E5 E6 E7"/>
    </vehicle>
    <vehicle id="67" depart="289.41">
        <route edges="10 11 C0 C1 C2 C3 C4"/>
    </vehicle>
    <vehicle id="68" depart="293.73">
        <route edges="10 11 E0 E1 E2 E3 E14"/>
    </vehicle>
    <vehicle id="69" depart="298.05">
        <route edges="E24 C5 C6 C7 C8 9 10 11 0 1 2"/>
    </vehicle>
    <vehicle id="70" depart="302.37">
        <route edges="C4 C5 C6"/>
    </vehicle>
    <vehicle id="71" depart="306.69">
        <route edges="7 8 9 10 11 E0 E1 E2 E3 E4"/>
    </vehicle>
    <vehicle id="72" depart="311.01">
        <route edges="C2 C3 C4 C5 C6 C7 C8 9 10 11 0 1 2 3 4 5"/>
    </vehicle>
    <vehicle id="73" depart="315.33">
        <route edges="C6 C7 C8 9 E11"/>
    </vehicle>
    <vehicle id="74" depart="319.65">
        <route edges="4 5 6 7 8"/>
    </vehicle>
    <vehicle id="75" depart="323.97">
        <route edges="E9 5 6 7 8 9 10 11 E0 E1"/>
    </vehicle>
    <vehicle id="76" depart="328.28">
        <route edges="C2 C3 C4 C5"/>
    </vehicle>
    <vehicle id="77" depart="332.60">
        <route edges="2 3 4 5"/>
    </vehicle>
    <vehicle id="78" depart="336.92">
        <route edges="9 10 11 C0 C1 C2 C3 C4 C5 C6 C7 C8"/>
    </vehicle>
    <vehicle id="79" depart="341.24">
        <route edges="5"/>
    </vehicle>
    <vehicle id="80" depart="345.56">
        <route edges="10 11 E0"/>
    </vehicle>
    <vehicle id="81" depart="349.88">
        <route edges="5 6 7 8 9 10 11 E0 E1 E2 E3 E4 E5"/>
    </vehicle>
    <vehicle id="82" depart="354.20">
        <route edges="E5 E6 E7 E8 9 10"/>
    </vehicle>
    <vehicle id="83" depart="358.52">
        <route edges="6 7 8 9 10 11 E0 E1"/>
    </vehicle>
    <vehicle id="84" depart="362.84">
        <route edges="5 6 7 8 9 10 11 0 1 2"/>
    </vehicle>
    <vehicle id="85" depart="367.16">
        <route edges="E7 E8 9 10 11 C0 C1 C2 C3 C4 C5 C6 C7"/>
    </vehicle>
    <vehicle id="86" depart="371.48">
        <route edges="C4 C5 C6 C7 C8 9 10 11 E0 E1 E2"/>
    </vehicle>
    <vehicle id="87" depart="375.80">
        <route edges="E3 E4 E5 E6 E7 E8 9 10 11 0 1 2 3 4"/>
    </vehicle>
    <vehicle id="88" depart="380.12">
        <route edges="11 C0 C1 C2"/>
    </vehicle>
    <vehicle id="89" depart="384.44">
        <route edges="C2 C3"/>
    </vehicle>
    <vehicle id="90" depart="388.76">
        <route edges="E13 E5 E6 E7 E8 9 10 11 E0 E1"/>
    </vehicle>
    <vehicle id="91" depart="393.08">
        <route edges="E9 5 6 7 8 9 10 11"/>
    </vehicle>
    <vehicle id="92" depart="397.40">
        <route edges="C1 C2 C3 C4 C5 C6 C7 C8 9"/>
    </vehicle>
    <vehicle id="93" depart="401.72">
        <route edges="E5 E6 E7 E8 9 10 11 0 1 2 3 4 5 6"/>
    </vehicle>
    <vehicle id="94" depart="406.04">
        <route edges="4 5 6 7 8 9 10 11 C0 C1 C2 C3"/>
    </vehicle>
    <vehicle id="95" depart="410.36">
        <route edges="C2 C3 C4 C5 C6 C7 C8 9 10 11 0 1 2 3 4 5 6 7"/>
    </vehicle>
    <vehicle id="96" depart="414.68">
        <route edges="6 7 8 9 10 11 E0 E1 E2 E3 E4 E5 E6"/>
    </vehicle>
    <vehicle id="97" depart="418.99">
        <route edges="C3 C4 C5 C6 C7 C8 9 10 11 E0 E1 E2 E3 E4"/>
    </vehicle>
    <vehicle id="98" depart="423.31">
        <route edges="C6 C7 C8 9 10 11 0 1"/>
    </vehicle>
    <vehicle id="99" depart="427.63">
        <route edges="E9 5 6 7 8 9 10 11 E0 E1 E2 E3"/>
    </vehicle>
    <vehicle id="100" depart="431.95">
        <route edges="E8 9 10 11 E0 E1 E2 E3 E4 E5 E6"/>
    </vehicle>
    <vehicle id="101" depart="436.27">
        <route edges="E4 E5 E6 E7 E8 9 10 11 0 1 2 3"/>
    </vehicle>
    <vehicle id="102" depart="440.59">
        <route edges="C4 C5 C6 C7 C8 9 10 11 0 1 2 3 4 5"/>
    </vehicle>
    <vehicle id="103" depart="444.91">
        <route edges="C1 C2 C3 C4 C5 C6 C7 C8 9 10 11 0 1"/>
    </vehicle>
    <vehicle id="104" depart="449.23">
        <route edges="C0 C1 C2 C3 C4 C5 C6 C7 C8 9 10 11 E0 E1 E2 E3 E4 E5 E6 E7 E8"/>
    </vehicle>
    <vehicle id="105" depart="453.55">
        <route edges="7 8 9 10 11 E0 E1 E2"/>
    </vehicle>
    <vehicle id="106" depart="457.87">
        <route edges="C3 C4 C5 C6 C7 C8 9 10 11 C0 C1 C2"/>
    </vehicle>
    <vehicle id="107" depart="462.19">
        <route edges="E8"/>
    </vehicle>
    <vehicle id="108" depart="466.51">
        <route edges="C6 C7 C8 9 E11"/>
    </vehicle>
    <vehicle id="109" depart="470.83">
        <route edges="3 4 5 6 7 8"/>
    </vehicle>
    <vehicle id="110" depart="475.15">
        <route edges="E8 9 10 11 C0 C1 C2 C3 C4 C5 C6 C7"/>
    </vehicle>
    <vehicle id="111" depart="479.47">
        <route edges="C6 C7 C8 9 10 11 E0 E1 E2 E3 E14"/>
    </vehicle>
    <vehicle id="112" depart="483.79">
        <route edges="1 2 3 4 5 6 7 8 9 10 11 C0 C1 C2 C3 C4 C5 C6 C7"/>
    </vehicle>
    <vehicle id="113" depart="488.11">
        <route edges="C5 C6 C7 C8 9 10 11 E0 E1 E2 E3"/>
    </vehicle>
    <vehicle id="114" depart="492.43">
        <route edges="3 4 5 6 7 8 9 10 11 E0 E1 E2 E3 E4 E5 E6 E7"/>
    </vehicle>
    <vehicle id="115" depart="496.75">
        <route edges="10 11 0 1 2 3 4"/>
    </vehicle>
    <vehicle id="116" depart="501.07">
        <route edges="C8 9 10 11 E0 E1"/>
    </vehicle>
    <vehicle id="117" depart="505.39">
        <route edges="5 6 7 8 9 10 11 0 1 2"/>
    </vehicle>
    <vehicle id="118" depart="509.71">
        <route edges="E6 E7 E8 9 10 11 0 1 2 3 4 5 6"/>
    </vehicle>
    <vehicle id="119" depart="514.02">
        <route edges="C8 9 10 11 E0"/>
    </vehicle>
    <vehicle id="120" depart="518.34">
        <route edges="C2 C3 C4 C5 C6 C7"/>
    </vehicle>
    <vehicle id="121" depart="522.66">
        <route edges="C5 C6 C7 C8 9 10 11 E0 E1 E2 E3 E4 E5 E6"/>
    </vehicle>
    <vehicle id="122" depart="526.98">
        <route edges="4 5 6 7 8 9 E11"/>
    </vehicle>
    <vehicle id="123" depart="531.30">
        <route edges="6 7 8 9 10 11 C0 C1"/>
    </vehicle>
    <vehicle id="124" depart="535.62">
        <route edges="E1 E2 E3 E4 E5 E6 E7 E8 9 10 11 0 1 2 3 4 5 6 7 8"/>
    </vehicle>
    <vehicle id="125" depart="539.94">
        <route edges="8 9 10 11 E0 E1 E2 E3 E14"/>
    </vehicle>
    <vehicle id="126" depart="544.26">
        <route edges="10 11 C0 C1 C2 C3"/>
    </vehicle>
    <vehicle id="127" depart="548.58">
        <route edges="E9 5 6 7 8 9 10 11 E0 E1 E2 E3 E4 E5 E6 E7 E8"/>
    </vehicle>
    <vehicle id="128" depart="552.90">
        <route edges="10 11 0 1 2 3 4 5"/>
    </vehicle>
    <vehicle id="129" depart="557.22">
        <route edges="7 8 9 10 11 E0 E1 E2 E3 E4 E5 E6"/>
    </vehicle>
    <vehicle id="130" depart="561.54">
        <route edges="E5 E6 E7 E8 9 10 11 E0 E1 E2 E3 E4"/>
    </vehicle>
    <vehicle id="131" depart="565.86">
        <route edges="C0 C1 C2 C3 C4 C5 C6 C7 C8 9 10 11 0 1 2 3"/>
    </vehicle>
    <vehicle id="132" depart="570.18">
        <route edges="E4 E5 E6 E7 E8 9 10 11 0 1 2 3 E10"/>
    </vehicle>
    <vehicle id="133" depart="574.50">
        <route edges="C8 9 10 11 E0 E1 E2 E3 E4 E5 E6 E7 E8"/>
    </vehicle>
    <vehicle id="134" depart="578.82">
        <route edges="E1 E2 E3 E4 E5 E6 E7 E8 9 10 11 0"/>
    </vehicle>
    <vehicle id="135" depart="583.14">
        <route edges="E3 E4 E5 E6 E7 E8 9 10 11 0 1 2 3 4 5 6 7 8"/>
    </vehicle>
    <vehicle id="136" depart="587.46">
        <route edges="E1 E2 E3 E4 E5 E6"/>
    </vehicle>
    <vehicle id="137" depart="591.78">
        <route edges="2 3 4 5 6 7 8 9 10 11"/>
    </vehicle>
    <vehicle id="138" depart="596.10">
        <route edges="11 C0 C1 C2 C3 C4 C5 C6"/>
    </vehicle>
    <vehicle id="139" depart="600.42">
        <route edges="7 8 9 10 11 C0 C1 C2 C3 C4 C5 C6 C7 C8"/>
    </vehicle>
    <vehicle id="140" depart="604.74">
        <route edges="E13 E5 E6 E7 E8 9 10 11 0 1 2 3 4"/>
    </vehicle>
    <vehicle id="141" depart="609.05">
        <route edges="E0 E1 E2 E3 E4 E5 E6 E7 E8 9 10 11 0 1 2 3 4 5 6"/>
    </vehicle>
    <vehicle id="142" depart="613.37">
        <route edges="C4 C5 C6 C7 C8 9 10 11 E0 E1 E2 E3 E4 E5"/>
    </vehicle>
    <vehicle id="143" depart="617.69">
        <route edges="E4 E5 E6 E7 E8 9 10 11"/>
    </vehicle>
    <vehicle id="144" depart="622.01">
        <route edges="C2 C3 C4 C5 C6 C7 C8 9 10 11 0 1 2 3 4 5 6 7"/>
    </vehicle>
    <vehicle id="145" depart="626.33">
        <route edges="0 1 2 3 4 5 6 7 8 9 10 11 E0 E1 E2"/>
    </vehicle>
    <vehicle id="146" depart="630.65">
        <route edges="E0 E1 E2 E3 E4 E5 E6 E7 E8 9 10 11 0 1 2 3 4 5 6"/>
    </vehicle>
    <vehicle id="147" depart="634.97">
        <route edges="E2 E3 E4 E5 E6 E7 E8 9 10 11 C0 C1 C2 C3 C4 C5 C6"/>
    </vehicle>
    <vehicle id="148" depart="639.29">
        <route edges="C2 C3 C4 C5 C6 C7 C8 9 10 11 0"/>
    </vehicle>
    <vehicle id="149" depart="643.61">
        <route edges="10 11 E0 E1 E2 E3 E4 E5"/>
    </vehicle>
    <vehicle id="150" depart="647.93">
        <route edges="E6 E7 E8 9 10 11 C0 C1 C2 C3 C4 C5 C6"/>
    </vehicle>
    <vehicle id="151" depart="652.25">
        <route edges="E4 E5 E6 E7 E8 9 10 11 C0 C1 C2 C3 C4 C5 C6 C7"/>
    </vehicle>
    <vehicle id="152" depart="656.57">
        <route edges="3 4 5 6 7 8 9 10 11 0 1 2"/>
    </vehicle>
    <vehicle id="153" depart="660.89">
        <route edges="8 9 10 11 E0 E1 E2 E3 E4 E5"/>
    </vehicle>
    <vehicle id="154" depart="665.21">
        <route edges="E3 E4"/>
    </vehicle>
    <vehicle id="155" depart="669.53">
        <route edges="E6 E7 E8 9 10 11 0 1 2 3 4 5"/>
    </vehicle>
    <vehicle id="156" depart="673.85">
        <route edges="6 7 8 9 10 11"/>
    </vehicle>
    <vehicle id="157" depart="678.17">
        <route edges="E24 C5 C6 C7 C8 9 10 11 E0 E1 E2 E3 E4 E5"/>
    </vehicle>
    <vehicle id="158" depart="682.49">
        <route edges="C1 C2 C3 C4 C5 C6 C7 C8 9 10 11 E0"/>
    </vehicle>
    <vehicle id="159" depart="686.81">
        <route edges="3 4 5 6 7 8 9 10 11 E0 E1 E2 E3 E4 E5 E6"/>
    </vehicle>
    <vehicle id="160" depart="691.13">
        <route edges="E5 E6 E7 E8"/>
    </vehicle>
    <vehicle id="161" depart="695.45">
        <route edges="E3 E4"/>
    </vehicle>
    <vehicle id="162" depart="699.76">
        <route edges="0 1 2 3 4 5 6 7 8 9 10 11 E0 E1 E2 E3 E14"/>
    </vehicle>
    <vehicle id="163" depart="704.08">
        <route edges="9 10 11 E0 E1 E2 E3 E4 E5 E6"/>
    </vehicle>
    <vehicle id="164" depart="708.40">
        <route edges="E3 E4"/>
    </vehicle>
    <vehicle id="165" depart="712.72">
        <route edges="E3 E4 E5 E6 E7 E8 9 10 11 0 1 2 3 4 5 6 7"/>
    </vehicle>
    <vehicle id="166" depart="717.04">
        <route edges="E24 C5 C6 C7 C8 9 10 11"/>
    </vehicle>
    <vehicle id="167" depart="721.36">
        <route edges="E5 E6 E7 E8 9 10 11 E0 E1 E2 E3 E4"/>
    </vehicle>
    <vehicle id="168" depart="725.68">
        <route edges="5 6 7 8 9 10 11 C0 C1 C2 C3 E25"/>
    </vehicle>
    <vehicle id="169" depart="730.00">
        <route edges="C3 C4 C5 C6 C7 C8 9 10 11 0 1 2 3 4 5 6 7 8"/>
    </vehicle>
    <vehicle id="170" depart="734.32">
        <route edges="E3 E4 E5 E6 E7 E8 9 10 11 0 1 2 3 4 5"/>
    </vehicle>
    <vehicle id="171" depart="738.64">
        <route edges="0 1 2 3 4"/>
    </vehicle>
    <vehicle id="172" depart="742.96">
        <route edges="9 10 11 E0 E1 E2 E3 E4"/>
    </vehicle>
    <vehicle id="173" depart="747.28">
        <route edges="E8 9 10 11 0 1 2 3 4 5 6 7"/>
    </vehicle>
    <vehicle id="174" depart="751.60">
        <route edges="E0 E1 E2 E3 E4 E5 E6 E7 E8 9 10 11 C0 C1"/>
    </vehicle>
    <vehicle id="175" depart="755.92">
        <route edges="E9 5 6 7 8 9 10 11 C0 C1 C2 C3 C4 C5 C6"/>
    </vehicle>
    <vehicle id="176" depart="760.24">
        <route edges="E7 E8 9 10 11"/>
    </vehicle>
    <vehicle id="177" depart="764.56">
        <route edges="E8 9 10 11 0 1 2 3 4"/>
    </vehicle>
    <vehicle id="178" depart="768.88">
        <route edges="E8 9 10 11 0 1 2 3 4 5 6 7"/>
    </vehicle>
    <vehicle id="179" depart="773.20">
        <route edges="11 C0 C1 C2"/>
    </vehicle>
    <vehicle id="180" depart="777.52">
        <route edges="E13 E5 E6 E7 E8 9 10 11 0 1 2 3 4 5 6 7 8"/>
    </vehicle>
    <vehicle id="181" depart="781.84">
        <route edges="C8 9 10 11 C0 C1 C2 C3 C4 C5"/>
    </vehicle>
    <vehicle id="182" depart="786.16">
        <route edges="C1 C2 C3 C4 C5 C6 C7"/>
    </vehicle>
    <vehicle id="183" depart="790.48">
        <route edges="6 7 8 9 E11"/>
    </vehicle>
    <vehicle id="184" depart="794.79">
        <route edges="0 1 2 3 4 5 6 7 8 9 10 11 E0 E1 E2 E3 E4 E5 E6"/>
    </vehicle>
    <vehicle id="185" depart="799.11">
        <route edges="C6 C7 C8 9 E11"/>
    </vehicle>
    <vehicle id="186" depart="803.43">
        <route edges="E2 E3 E4 E5 E6 E7 E8 9 10 11 E0 E1"/>
    </vehicle>
    <vehicle id="187" depart="807.75">
        <route edges="C0 C1 C2 C3 C4 C5 C6 C7 C8 9 10"/>
    </vehicle>
    <vehicle id="188" depart="812.07">
        <route edges="E1 E2 E3 E4 E5 E6 E7 E8 9"/>
    </vehicle>
    <vehicle id="189" depart="816.39">
        <route edges="8 9 10 11 E0 E1 E2 E3"/>
    </vehicle>
    <vehicle id="190" depart="820.71">
        <route edges="E13 E5 E6 E7 E8 9 10 11 0 1 2 3 4 5 6 7 8"/>
    </vehicle>
    <vehicle id="191" depart="825.03">
        <route edges="8 9 10 11 C0 C1"/>
    </vehicle>
    <vehicle id="192" depart="829.35">
        <route edges="C1 C2 C3 C4 C5 C6 C7 C8 9 10 11 0 1 2 3 4 5 6 7 8"/>
    </vehicle>
    <vehicle id="193" depart="833.67">
        <route edges="2 3 4 5 6 7 8 9 10 11 C0 C1 C2"/>
    </vehicle>
    <vehicle id="194" depart="837.99">
        <route edges="E7 E8 9 10 11 0 1 2 3 E10"/>
    </vehicle>
    <vehicle id="195" depart="842.31">
        <route edges="E6 E7 E8 9 10 11 C0 C1 C2 C3 C4 C5 C6 C7 C8"/>
    </vehicle>
    <vehicle id="196" depart="846.63">
        <route edges="8 9 10 11 C0 C1 C2 C3 C4 C5 C6"/>
    </vehicle>
    <vehicle id="197" depart="850.95">
        <route edges="0 1 2 3 4 5 6 7"/>
    </vehicle>
    <vehicle id="198" depart="855.27">
        <route edges="C2 C3 C4 C5 C6 C7"/>
    </vehicle>
    <vehicle id="199" depart="859.59">
        <route edges="E1 E2 E3 E4 E5 E6 E7 E8 9 10 11 C0 C1 C2 C3"/>
    </vehicle>
    <vehicle id="200" depart="863.91">
        <route edges="C3 C4 C5 C6 C7 C8 9 10 11 0 1 2 3 4 5"/>
    </vehicle>
    <vehicle id="201" depart="868.23">
        <route edges="C4 C5 C6 C7 C8 9 10 11 E0 E1 E2 E3 E4 E5"/>
    </vehicle>
    <vehicle id="202" depart="872.55">
        <route edges="E3 E4 E5 E6 E7 E8 9 10 11 0 1 2 3"/>
    </vehicle>
    <vehicle id="203" depart="876.87">
        <route edges="10 11 C0 C1 C2 C3 C4 C5"/>
    </vehicle>
    <vehicle id="204" depart="881.19">
        <route edges="E0 E1 E2 E3 E4 E5 E6 E7 E8 9"/>
    </vehicle>
    <vehicle id="205" depart="885.50">
        <route edges="E3 E14"/>
    </vehicle>
    <vehicle id="206" depart="889.82">
        <route edges="E1 E2 E3 E4 E5 E6 E7 E8 9 10 11 0 1 2 3 4 5"/>
    </vehicle>
    <vehicle id="207" depart="894.14">
        <route edges="4 5 6 7 8 9 10 11 0"/>
    </vehicle>
    <vehicle id="208" depart="898.46">
        <route edges="6 7 8 9 10 11 C0 C1 C2 C3 C4"/>
    </vehicle>
    <vehicle id="209" depart="902.78">
        <route edges="E4 E5 E6 E7 E8 9 10"/>
    </vehicle>
    <vehicle id="210" depart="907.10">
        <route edges="C2 C3 C4 C5 C6 C7 C8 9 10 11 E0"/>
    </vehicle>
    <vehicle id="211" depart="911.42">
        <route edges="4 5 6 7 8 9 10 11 0 1 2 3 E10"/>
    </vehicle>
    <vehicle id="212" depart="915.74">
        <route edges="C4 C5 C6 C7 C8 9 10 11 0 1 2 3 4 5 6"/>
    </vehicle>
    <vehicle id="213" depart="920.06">
        <route edges="E1 E2 E3 E4 E5 E6 E7 E8 9 10 11 0"/>
    </vehicle>
    <vehicle id="214" depart="924.38">
        <route edges="E2"/>
    </vehicle>
    <vehicle id="215" depart="928.70">
        <route edges="11 C0 C1 C2"/>
    </vehicle>
    <vehicle id="216" depart="933.02">
        <route edges="3 4 5 6 7 8 9 10 11 E0 E1 E2 E3 E4 E5 E6 E7"/>
    </vehicle>
    <vehicle id="217" depart="937.34">
        <route edges="C5 C6 C7 C8 9 10 11 0 1"/>
    </vehicle>
    <vehicle id="218" depart="941.66">
        <route edges="6 7 8 9 10 11 E0 E1 E2 E3"/>
    </vehicle>
    <vehicle id="219" depart="945.98">
        <route edges="C3 E25"/>
    </vehicle>
    <vehicle id="220" depart="950.30">
        <route edges="E1 E2 E3 E4 E5 E6 E7 E8"/>
    </vehicle>
    <vehicle id="221" depart="954.62">
        <route edges="C8 9 10 11 E0 E1 E2 E3 E4 E5 E6 E7"/>
    </vehicle>
    <vehicle id="222" depart="958.94">
        <route edges="E6 E7 E8 9 10 11 C0 C1 C2 C3 C4 C5 C6 C7 C8"/>
    </vehicle>
    <vehicle id="223" depart="963.26">
        <route edges="E13 E5 E6 E7 E8 9 10 11 C0 C1 C2 C3 C4 C5"/>
    </vehicle>
    <vehicle id="224" depart="967.58">
        <route edges="E4 E5 E6 E7 E8 9 10 11 C0 C1 C2 C3 C4 C5 C6"/>
    </vehicle>
    <vehicle id="225" depart="971.90">
        <route edges="E6 E7 E8 9 10 11 E0 E1 E2 E3 E14"/>
    </vehicle>
    <vehicle id="226" depart="976.22">
        <route edges="C4 C5 C6 C7 C8 9 10 11 0 1 2 3 4 5 6"/>
    </vehicle>
    <vehicle id="227" depart="980.53">
        <route edges="6 7 8 9 10 11 E0"/>
    </vehicle>
    <vehicle id="228" depart="984.85">
        <route edges="E24 C5"/>
    </vehicle>
    <vehicle id="229" depart="989.17">
        <route edges="E0 E1 E2 E3 E4 E5 E6 E7 E8 9 10 11 0 1 2 3 4 5 6 7"/>
    </vehicle>
    <vehicle id="230" depart="993.49">
        <route edges="10 11 0 1 2 3 4 5 6 7"/>
    </vehicle>
    <vehicle id="231" depart="997.81">
        <route edges="7 8"/>
    </vehicle>
    <vehicle id="232" depart="1002.13">
        <route edges="C6 C7 C8 9 10 11 0 1 2"/>
    </vehicle>
    <vehicle id="233" depart="1006.45">
        <route edges="5 6 7 8 9 10 11 0 1 2 3 E10"/>
    </vehicle>
    <vehicle id="234" depart="1010.77">
        <route edges="E13 E5 E6 E7 E8 9 10"/>
    </vehicle>
    <vehicle id="235" depart="1015.09">
        <route edges="C1 C2 C3 C4 C5 C6"/>
    </vehicle>
    <vehicle id="236" depart="1019.41">
        <route edges="C2 C3 C4 C5 C6 C7 C8 9 10 11 0 1 2 3 4 5"/>
    </vehicle>
    <vehicle id="237" depart="1023.73">
        <route edges="C2 C3 C4 C5 C6 C7 C8 9 10 11 E0 E1 E2 E3 E4 E5"/>
    </vehicle>
    <vehicle id="238" depart="1028.05">
        <route edges="C7 C8 9 10 11 0 1 2 3 E10"/>
    </vehicle>
    <vehicle id="239" depart="1032.37">
        <route edges="E5 E6 E7 E8 9 10 11 E0 E1 E2"/>
    </vehicle>
    <vehicle id="240" depart="1036.69">
        <route edges="C0 C1 C2 C3 C4 C5 C6 C7 C8 9 10 11 0"/>
    </vehicle>
    <vehicle id="241" depart="1041.01">
        <route edges="9 10 11 E0 E1 E2 E3 E14"/>
    </vehicle>
    <vehicle id="242" depart="1045.33">
        <route edges="E5 E6 E7"/>
    </vehicle>
    <vehicle id="243" depart="1049.65">
        <route edges="C2 C3 C4 C5 C6 C7 C8 9 10 11 E0 E1 E2 E3 E14"/>
    </vehicle>
    <vehicle id="244" depart="1053.97">
        <route edges="C6 C7 C8"/>
    </vehicle>
    <vehicle id="245" depart="1058.29">
        <route edges="5"/>
    </vehicle>
    <vehicle id="246" depart="1062.61">
        <route edges="C2 C3 C4 C5 C6 C7 C8 9 10 11 0"/>
    </vehicle>
    <vehicle id="247" depart="1066.93">
        <route edges="9 10 11 0 1 2 3 E10"/>
    </vehicle>
    <vehicle id="248" depart="1071.24">
        <route edges="C1 C2 C3 C4 C5 C6 C7 C8 9 10 11 0 1 2 3"/>
    </vehicle>
    <vehicle id="249" depart="1075.56">
        <route edges="C3 C4 C5 C6 C7 C8 9 10 11 0 1 2"/>
    </vehicle>
    <vehicle id="250" depart="1079.88">
        <route edges="E0 E1 E2 E3 E4 E5 E6 E7 E8 9 10 11 0"/>
    </vehicle>
    <vehicle id="251" depart="1084.20">
        <route edges="C1 C2 C3 C4 C5 C6 C7"/>
    </vehicle>
    <vehicle id="252" depart="1088.52">
        <route edges="0 1 2 3 4 5 6 7 8 9 10 11 E0"/>
    </vehicle>
    <vehicle id="253" depart="1092.84">
        <route edges="2 3 4 5 6 7 8 9 10 11 C0 C1 C2 C3"/>
    </vehicle>
    <vehicle id="254" depart="1097.16">
        <route edges="1 2 3 4 5 6 7 8 9 10 11 C0"/>
    </vehicle>
    <vehicle id="255" depart="1101.48">
        <route edges="5 6 7 8 9"/>
    </vehicle>
    <vehicle id="256" depart="1105.80">
        <route edges="E2 E3 E4 E5 E6 E7 E8 9 10 11 C0"/>
    </vehicle>
    <vehicle id="257" depart="1110.12">
        <route edges="E2 E3"/>
    </vehicle>
    <vehicle id="258" depart="1114.44">
        <route edges="6 7 8 9 10"/>
    </vehicle>
    <vehicle id="259" depart="1118.76">
        <route edges="0 1 2 3 4 5 6 7 8 9 10 11 C0 C1 C2 C3 C4 C5 C6"/>
    </vehicle>
    <vehicle id="260" depart="1123.08">
        <route edges="E9 5 6 7 8 9"/>
    </vehicle>
    <vehicle id="261" depart="1127.40">
        <route edges="E1 E2"/>
    </vehicle>
    <vehicle id="262" depart="1131.72">
        <route edges="E1 E2 E3 E14"/>
    </vehicle>
    <vehicle id="263" depart="1136.04">
        <route edges="E8 9 10 11 0 1 2 3 4"/>
    </vehicle>
    <vehicle id="264" depart="1140.36">
        <route edges="0 1 2 3"/>
    </vehicle>
    <vehicle id="265" depart="1144.68">
        <route edges="2 3 4 5 6 7 8 9 10 11 E0 E1"/>
    </vehicle>
    <vehicle id="266" depart="1149.00">
        <route edges="C7 C8 9 10 11 0 1 2 3 4 5"/>
    </vehicle>
    <vehicle id="267" depart="1153.32">
        <route edges="E12 11 E0 E1 E2"/>
    </vehicle>
    <vehicle id="268" depart="1157.64">
        <route edges="3 4 5 6 7 8 9 10 11 C0 C1 C2 C3 C4 C5 C6 C7 C8"/>
    </vehicle>
    <vehicle id="269" depart="1161.96">
        <route edges="E2 E3 E4 E5 E6 E7 E8 9 10 11"/>
    </vehicle>
    <vehicle id="270" depart="1166.27">