<?xml version="1.0" encoding="UTF-8"?>

<!-- generated on 2024-08-02 12:10:27.589187 by randomtrips.py v1_14_1+0000-f654d7b963e
<configuration>
    <end value="3000"/>
    <insertion-density value="90.0"/>
    <net-file value="scenario3/sumo/ring.net.xml"/>
    <route-file value="scenario3/sumo/traffic90.rou.xml"/>
</configuration>
-->

<!-- generated on 2024-08-02 12:10:27 by Eclipse SUMO duarouter Version 1.14.1
<configuration xmlns:xsi="http://www.w3.org/2001/XMLSchema-instance" xsi:noNamespaceSchemaLocation="http://sumo.dlr.de/xsd/duarouterConfiguration.xsd">

    <input>
        <net-file value="scenario3/sumo/ring.net.xml"/>
        <route-files value="trips.trips.xml"/>
    </input>

    <output>
        <output-file value="scenario3/sumo/traffic90.rou.xml"/>
        <alternatives-output value="NUL"/>
    </output>

    <time>
        <begin value="0"/>
        <end value="3000"/>
    </time>

    <report>
        <no-warnings value="true"/>
        <ignore-errors value="true"/>
        <no-step-log value="true"/>
    </report>

</configuration>
-->

<routes xmlns:xsi="http://www.w3.org/2001/XMLSchema-instance" xsi:noNamespaceSchemaLocation="http://sumo.dlr.de/xsd/routes_file.xsd">
    <vehicle id="0" depart="0.00">
        <route edges="E0 E1 E2 E3 E4 E5 E6 E7 E8 9 10 11 0"/>
    </vehicle>
    <vehicle id="1" depart="1.39">
        <route edges="7 8 9 10 11 0 1 2 3 4 5"/>
    </vehicle>
    <vehicle id="2" depart="2.78">
        <route edges="E2 E3 E4 E5 E6 E7 E8 9 10 11 0 1 2 3 E10"/>
    </vehicle>
    <vehicle id="3" depart="4.18">
        <route edges="E6 E7 E8 9 10"/>
    </vehicle>
    <vehicle id="4" depart="5.57">
        <route edges="C2 C3 C4 C5 C6 C7 C8 9 10 11 0 1"/>
    </vehicle>
    <vehicle id="5" depart="6.96">
        <route edges="5 6 7 8 9 10 11 C0 C1 C2 C3 C4 C5"/>
    </vehicle>
    <vehicle id="6" depart="8.35">
        <route edges="0 1 2 3 4"/>
    </vehicle>
    <vehicle id="7" depart="9.74">
        <route edges="E1 E2 E3 E4 E5 E6 E7 E8 9 10 11 C0 C1 C2 C3 C4 C5 C6"/>
    </vehicle>
    <vehicle id="8" depart="11.13">
        <route edges="5 6 7 8 9 10 11 C0 C1 C2 C3 C4 C5 C6 C7 C8"/>
    </vehicle>
    <vehicle id="9" depart="12.53">
        <route edges="E3 E4 E5 E6 E7 E8 9 10 11 0"/>
    </vehicle>
    <vehicle id="10" depart="13.92">
        <route edges="E3 E4 E5 E6 E7 E8 9 10 11 0 1 2 3 E10"/>
    </vehicle>
    <vehicle id="11" depart="15.31">
        <route edges="9 10 11 0 1 2 3"/>
    </vehicle>
    <vehicle id="12" depart="16.70">
        <route edges="E8 9"/>
    </vehicle>
    <vehicle id="13" depart="18.09">
        <route edges="11"/>
    </vehicle>
    <vehicle id="14" depart="19.49">
        <route edges="E4 E5 E6 E7 E8 9 10 11 C0 C1 C2 C3 C4 C5 C6 C7 C8"/>
    </vehicle>
    <vehicle id="15" depart="20.88">
        <route edges="E3 E4 E5 E6 E7 E8 9 E11"/>
    </vehicle>
    <vehicle id="16" depart="22.27">
        <route edges="C6 C7 C8 9 10 11 E0 E1 E2 E3 E4 E5 E6 E7 E8"/>
    </vehicle>
    <vehicle id="17" depart="23.66">
        <route edges="C0 C1 C2 C3 C4 C5 C6"/>
    </vehicle>
    <vehicle id="18" depart="25.05">
        <route edges="E4 E5 E6 E7 E8 9 10 11 E0"/>
    </vehicle>
    <vehicle id="19" depart="26.45">
        <route edges="E5 E6 E7 E8 9 10 11 C0 C1 C2 C3 C4 C5 C6 C7"/>
    </vehicle>
    <vehicle id="20" depart="27.84">
        <route edges="E12 11 0 1"/>
    </vehicle>
    <vehicle id="21" depart="29.23">
        <route edges="5 6 7"/>
    </vehicle>
    <vehicle id="22" depart="30.62">
        <route edges="10 11 0 1 2 3 4 5"/>
    </vehicle>
    <vehicle id="23" depart="32.01">
        <route edges="11 0 1 2 3 4 5 6 7"/>
    </vehicle>
    <vehicle id="24" depart="33.40">
        <route edges="E0 E1 E2 E3 E4 E5 E6 E7 E8 9 10 11 C0"/>
    </vehicle>
    <vehicle id="25" depart="34.80">
        <route edges="C0 C1 C2 C3 C4 C5 C6 C7 C8 9 10 11 0 1 2 3 4 5"/>
    </vehicle>
    <vehicle id="26" depart="36.19">
        <route edges="7 8 9 10 11 E0 E1 E2 E3 E4 E5 E6"/>
    </vehicle>
    <vehicle id="27" depart="37.58">
        <route edges="E1 E2 E3 E4 E5 E6 E7 E8 9 10 11 C0 C1 C2 C3 C4 C5 C6 C7 C8"/>
    </vehicle>
    <vehicle id="28" depart="38.97">
        <route edges="3 4 5 6 7 8 9 E11"/>
    </vehicle>
    <vehicle id="29" depart="40.36">
        <route edges="3 4 5 6 7 8 9 10 11 C0"/>
    </vehicle>
    <vehicle id="30" depart="41.76">
        <route edges="E9 5 6 7 8 9 10 11 E0"/>
    </vehicle>
    <vehicle id="31" depart="43.15">
        <route edges="C6 C7 C8 9 10 11 0 1 2 3 E10"/>
    </vehicle>
    <vehicle id="32" depart="44.54">
        <route edges="E4 E5 E6 E7 E8 9 10 11 E0 E1 E2"/>
    </vehicle>
    <vehicle id="33" depart="45.93">
        <route edges="5 6 7 8 9 10 11 0 1"/>
    </vehicle>
    <vehicle id="34" depart="47.32">
        <route edges="8 9 10 11 0 1 2 3 4 5 6 7"/>
    </vehicle>
    <vehicle id="35" depart="48.71">
        <route edges="5 6 7 8 9 10 11 E0 E1 E2 E3 E4 E5 E6 E7"/>
    </vehicle>
    <vehicle id="36" depart="50.11">
        <route edges="E5 E6 E7 E8 9 10 11 0 1 2 3 4 5 6 7 8"/>
    </vehicle>
    <vehicle id="37" depart="51.50">
        <route edges="E1 E2 E3 E4 E5 E6 E7 E8 9 10 11 C0 C1"/>
    </vehicle>
    <vehicle id="38" depart="52.89">
        <route edges="E7 E8 9 10 11 C0 C1 C2 C3"/>
    </vehicle>
    <vehicle id="39" depart="54.28">
        <route edges="7 8 9 10 11 0 1 2 3 4 5 6"/>
    </vehicle>
    <vehicle id="40" depart="55.67">
        <route edges="C7 C8 9 10 11 0 1 2 3 4 5 6"/>
    </vehicle>
    <vehicle id="41" depart="57.07">
        <route edges="C7 C8 9 10 11 E0 E1 E2 E3 E4 E5"/>
    </vehicle>
    <vehicle id="42" depart="58.46">
        <route edges="C1 C2 C3 C4 C5 C6 C7 C8 9 10 11 0 1 2 3 4 5"/>
    </vehicle>
    <vehicle id="43" depart="59.85">
        <route edges="E9 5 6 7 8 9 10 11 C0 C1 C2 C3 C4 C5"/>
    </vehicle>
    <vehicle id="44" depart="61.24">
        <route edges="11 0 1"/>
    </vehicle>
    <vehicle id="45" depart="62.63">
        <route edges="11 E0"/>
    </vehicle>
    <vehicle id="46" depart="64.03">
        <route edges="E24 C5 C6 C7 C8 9 10 11 C0 C1 C2"/>
    </vehicle>
    <vehicle id="47" depart="65.42">
        <route edges="10 11 C0"/>
    </vehicle>
    <vehicle id="48" depart="66.81">
        <route edges="E9 5 6 7 8 9 10 11 C0 C1 C2 C3 C4 C5"/>
    </vehicle>
    <vehicle id="49" depart="68.20">
        <route edges="E9 5 6 7 8 9 10 11 E0 E1 E2 E3 E4"/>
    </vehicle>
    <vehicle id="50" depart="69.59">
        <route edges="0 1 2 3 4 5 6 7 8 9 E11"/>
    </vehicle>
    <vehicle id="51" depart="70.98">
        <route edges="E12 11 C0 C1 C2 C3 C4 C5 C6"/>
    </vehicle>
    <vehicle id="52" depart="72.38">
        <route edges="7 8 9 10 11 E0"/>
    </vehicle>
    <vehicle id="53" depart="73.77">
        <route edges="11 C0 C1 C2"/>
    </vehicle>
    <vehicle id="54" depart="75.16">
        <route edges="C3 C4 C5 C6 C7 C8 9 10 11 E0 E1 E2 E3 E4 E5 E6 E7"/>
    </vehicle>
    <vehicle id="55" depart="76.55">
        <route edges="E5 E6 E7 E8 9 10 11 0 1 2 3 4 5 6"/>
    </vehicle>
    <vehicle id="56" depart="77.94">
        <route edges="C5 C6 C7 C8 9 10 11 0 1 2 3 4"/>
    </vehicle>
    <vehicle id="57" depart="79.34">
        <route edges="E7 E8 9 10 11 E0 E1 E2 E3 E4"/>
    </vehicle>
    <vehicle id="58" depart="80.73">
        <route edges="8 9 10 11 E0"/>
    </vehicle>
    <vehicle id="59" depart="82.12">
        <route edges="C8 9 10 11 0 1 2 3"/>
    </vehicle>
    <vehicle id="60" depart="83.51">
        <route edges="E2 E3 E4 E5 E6 E7 E8 9 10 11 C0 C1 C2 C3 C4 C5 C6"/>
    </vehicle>
    <vehicle id="61" depart="84.90">
        <route edges="E24 C5 C6"/>
    </vehicle>
    <vehicle id="62" depart="86.29">
        <route edges="0 1 2 3 4 5 6 7 8 9"/>
    </vehicle>
    <vehicle id="63" depart="87.69">
        <route edges="0 1 2 3 4 5 6 7 8 9 10 11 E0 E1 E2 E3 E4 E5 E6"/>
    </vehicle>
    <vehicle id="64" depart="89.08">
        <route edges="E5 E6 E7 E8 9 10 11 E0 E1 E2 E3"/>
    </vehicle>
    <vehicle id="65" depart="90.47">
        <route edges="8 9 10 11 0 1"/>
    </vehicle>
    <vehicle id="66" depart="91.86">
        <route edges="E5 E6 E7"/>
    </vehicle>
    <vehicle id="67" depart="93.25">
        <route edges="10 11 C0 C1 C2 C3 C4"/>
    </vehicle>
    <vehicle id="68" depart="94.65">
        <route edges="10 11 E0 E1 E2 E3 E14"/>
    </vehicle>
    <vehicle id="69" depart="96.04">
        <route edges="E24 C5 C6 C7 C8 9 10 11 0 1 2"/>
    </vehicle>
    <vehicle id="70" depart="97.43">
        <route edges="C4 C5 C6"/>
    </vehicle>
    <vehicle id="71" depart="98.82">
        <route edges="7 8 9 10 11 E0 E1 E2 E3 E4"/>
    </vehicle>
    <vehicle id="72" depart="100.21">
        <route edges="C2 C3 C4 C5 C6 C7 C8 9 10 11 0 1 2 3 4 5"/>
    </vehicle>
    <vehicle id="73" depart="101.61">
        <route edges="C6 C7 C8 9 E11"/>
    </vehicle>
    <vehicle id="74" depart="103.00">
        <route edges="4 5 6 7 8"/>
    </vehicle>
    <vehicle id="75" depart="104.39">
        <route edges="E9 5 6 7 8 9 10 11 E0 E1"/>
    </vehicle>
    <vehicle id="76" depart="105.78">
        <route edges="C2 C3 C4 C5"/>
    </vehicle>
    <vehicle id="77" depart="107.17">
        <route edges="2 3 4 5"/>
    </vehicle>
    <vehicle id="78" depart="108.56">
        <route edges="9 10 11 C0 C1 C2 C3 C4 C5 C6 C7 C8"/>
    </vehicle>
    <vehicle id="79" depart="109.96">
        <route edges="5"/>
    </vehicle>
    <vehicle id="80" depart="111.35">
        <route edges="10 11 E0"/>
    </vehicle>
    <vehicle id="81" depart="112.74">
        <route edges="5 6 7 8 9 10 11 E0 E1 E2 E3 E4 E5"/>
    </vehicle>
    <vehicle id="82" depart="114.13">
        <route edges="E5 E6 E7 E8 9 10"/>
    </vehicle>
    <vehicle id="83" depart="115.52">
        <route edges="6 7 8 9 10 11 E0 E1"/>
    </vehicle>
    <vehicle id="84" depart="116.92">
        <route edges="5 6 7 8 9 10 11 0 1 2"/>
    </vehicle>
    <vehicle id="85" depart="118.31">
        <route edges="E7 E8 9 10 11 C0 C1 C2 C3 C4 C5 C6 C7"/>
    </vehicle>
    <vehicle id="86" depart="119.70">
        <route edges="C4 C5 C6 C7 C8 9 10 11 E0 E1 E2"/>
    </vehicle>
    <vehicle id="87" depart="121.09">
        <route edges="E3 E4 E5 E6 E7 E8 9 10 11 0 1 2 3 4"/>
    </vehicle>
    <vehicle id="88" depart="122.48">
        <route edges="11 C0 C1 C2"/>
    </vehicle>
    <vehicle id="89" depart="123.87">
        <route edges="C2 C3"/>
    </vehicle>
    <vehicle id="90" depart="125.27">
        <route edges="E13 E5 E6 E7 E8 9 10 11 E0 E1"/>
    </vehicle>
    <vehicle id="91" depart="126.66">
        <route edges="E9 5 6 7 8 9 10 11"/>
    </vehicle>
    <vehicle id="92" depart="128.05">
        <route edges="C1 C2 C3 C4 C5 C6 C7 C8 9"/>
    </vehicle>
    <vehicle id="93" depart="129.44">
        <route edges="E5 E6 E7 E8 9 10 11 0 1 2 3 4 5 6"/>
    </vehicle>
    <vehicle id="94" depart="130.83">
        <route edges="4 5 6 7 8 9 10 11 C0 C1 C2 C3"/>
    </vehicle>
    <vehicle id="95" depart="132.23">
        <route edges="C2 C3 C4 C5 C6 C7 C8 9 10 11 0 1 2 3 4 5 6 7"/>
    </vehicle>
    <vehicle id="96" depart="133.62">
        <route edges="6 7 8 9 10 11 E0 E1 E2 E3 E4 E5 E6"/>
    </vehicle>
    <vehicle id="97" depart="135.01">
        <route edges="C3 C4 C5 C6 C7 C8 9 10 11 E0 E1 E2 E3 E4"/>
    </vehicle>
    <vehicle id="98" depart="136.40">
        <route edges="C6 C7 C8 9 10 11 0 1"/>
    </vehicle>
    <vehicle id="99" depart="137.79">
        <route edges="E9 5 6 7 8 9 10 11 E0 E1 E2 E3"/>
    </vehicle>
    <vehicle id="100" depart="139.19">
        <route edges="E8 9 10 11 E0 E1 E2 E3 E4 E5 E6"/>
    </vehicle>
    <vehicle id="101" depart="140.58">
        <route edges="E4 E5 E6 E7 E8 9 10 11 0 1 2 3"/>
    </vehicle>
    <vehicle id="102" depart="141.97">
        <route edges="C4 C5 C6 C7 C8 9 10 11 0 1 2 3 4 5"/>
    </vehicle>
    <vehicle id="103" depart="143.36">
        <route edges="C1 C2 C3 C4 C5 C6 C7 C8 9 10 11 0 1"/>
    </vehicle>
    <vehicle id="104" depart="144.75">
        <route edges="C0 C1 C2 C3 C4 C5 C6 C7 C8 9 10 11 E0 E1 E2 E3 E4 E5 E6 E7 E8"/>
    </vehicle>
    <vehicle id="105" depart="146.14">
        <route edges="7 8 9 10 11 E0 E1 E2"/>
    </vehicle>
    <vehicle id="106" depart="147.54">
        <route edges="C3 C4 C5 C6 C7 C8 9 10 11 C0 C1 C2"/>
    </vehicle>
    <vehicle id="107" depart="148.93">
        <route edges="E8"/>
    </vehicle>
    <vehicle id="108" depart="150.32">
        <route edges="C6 C7 C8 9 E11"/>
    </vehicle>
    <vehicle id="109" depart="151.71">
        <route edges="3 4 5 6 7 8"/>
    </vehicle>
    <vehicle id="110" depart="153.10">
        <route edges="E8 9 10 11 C0 C1 C2 C3 C4 C5 C6 C7"/>
    </vehicle>
    <vehicle id="111" depart="154.50">
        <route edges="C6 C7 C8 9 10 11 E0 E1 E2 E3 E14"/>
    </vehicle>
    <vehicle id="112" depart="155.89">
        <route edges="1 2 3 4 5 6 7 8 9 10 11 C0 C1 C2 C3 C4 C5 C6 C7"/>
    </vehicle>
    <vehicle id="113" depart="157.28">
        <route edges="C5 C6 C7 C8 9 10 11 E0 E1 E2 E3"/>
    </vehicle>
    <vehicle id="114" depart="158.67">
        <route edges="3 4 5 6 7 8 9 10 11 E0 E1 E2 E3 E4 E5 E6 E7"/>
    </vehicle>
    <vehicle id="115" depart="160.06">
        <route edges="10 11 0 1 2 3 4"/>
    </vehicle>
    <vehicle id="116" depart="161.45">
        <route edges="C8 9 10 11 E0 E1"/>
    </vehicle>
    <vehicle id="117" depart="162.85">
        <route edges="5 6 7 8 9 10 11 0 1 2"/>
    </vehicle>
    <vehicle id="118" depart="164.24">
        <route edges="E6 E7 E8 9 10 11 0 1 2 3 4 5 6"/>
    </vehicle>
    <vehicle id="119" depart="165.63">
        <route edges="C8 9 10 11 E0"/>
    </vehicle>
    <vehicle id="120" depart="167.02">
        <route edges="C2 C3 C4 C5 C6 C7"/>
    </vehicle>
    <vehicle id="121" depart="168.41">
        <route edges="C5 C6 C7 C8 9 10 11 E0 E1 E2 E3 E4 E5 E6"/>
    </vehicle>
    <vehicle id="122" depart="169.81">
        <route edges="4 5 6 7 8 9 E11"/>
    </vehicle>
    <vehicle id="123" depart="171.20">
        <route edges="6 7 8 9 10 11 C0 C1"/>
    </vehicle>
    <vehicle id="124" depart="172.59">
        <route edges="E1 E2 E3 E4 E5 E6 E7 E8 9 10 11 0 1 2 3 4 5 6 7 8"/>
    </vehicle>
    <vehicle id="125" depart="173.98">
        <route edges="8 9 10 11 E0 E1 E2 E3 E14"/>
    </vehicle>
    <vehicle id="126" depart="175.37">
        <route edges="10 11 C0 C1 C2 C3"/>
    </vehicle>
    <vehicle id="127" depart="176.77">
        <route edges="E9 5 6 7 8 9 10 11 E0 E1 E2 E3 E4 E5 E6 E7 E8"/>
    </vehicle>
    <vehicle id="128" depart="178.16">
        <route edges="10 11 0 1 2 3 4 5"/>
    </vehicle>
    <vehicle id="129" depart="179.55">
        <route edges="7 8 9 10 11 E0 E1 E2 E3 E4 E5 E6"/>
    </vehicle>
    <vehicle id="130" depart="180.94">
        <route edges="E5 E6 E7 E8 9 10 11 E0 E1 E2 E3 E4"/>
    </vehicle>
    <vehicle id="131" depart="182.33">
        <route edges="C0 C1 C2 C3 C4 C5 C6 C7 C8 9 10 11 0 1 2 3"/>
    </vehicle>
    <vehicle id="132" depart="183.72">
        <route edges="E4 E5 E6 E7 E8 9 10 11 0 1 2 3 E10"/>
    </vehicle>
    <vehicle id="133" depart="185.12">
        <route edges="C8 9 10 11 E0 E1 E2 E3 E4 E5 E6 E7 E8"/>
    </vehicle>
    <vehicle id="134" depart="186.51">
        <route edges="E1 E2 E3 E4 E5 E6 E7 E8 9 10 11 0"/>
    </vehicle>
    <vehicle id="135" depart="187.90">
        <route edges="E3 E4 E5 E6 E7 E8 9 10 11 0 1 2 3 4 5 6 7 8"/>
    </vehicle>
    <vehicle id="136" depart="189.29">
        <route edges="E1 E2 E3 E4 E5 E6"/>
    </vehicle>
    <vehicle id="137" depart="190.68">
        <route edges="2 3 4 5 6 7 8 9 10 11"/>
    </vehicle>
    <vehicle id="138" depart="192.08">
        <route edges="11 C0 C1 C2 C3 C4 C5 C6"/>
    </vehicle>
    <vehicle id="139" depart="193.47">
        <route edges="7 8 9 10 11 C0 C1 C2 C3 C4 C5 C6 C7 C8"/>
    </vehicle>
    <vehicle id="140" depart="194.86">
        <route edges="E13 E5 E6 E7 E8 9 10 11 0 1 2 3 4"/>
    </vehicle>
    <vehicle id="141" depart="196.25">
        <route edges="E0 E1 E2 E3 E4 E5 E6 E7 E8 9 10 11 0 1 2 3 4 5 6"/>
    </vehicle>
    <vehicle id="142" depart="197.64">
        <route edges="C4 C5 C6 C7 C8 9 10 11 E0 E1 E2 E3 E4 E5"/>
    </vehicle>
    <vehicle id="143" depart="199.03">
        <route edges="E4 E5 E6 E7 E8 9 10 11"/>
    </vehicle>
    <vehicle id="144" depart="200.43">
        <route edges="C2 C3 C4 C5 C6 C7 C8 9 10 11 0 1 2 3 4 5 6 7"/>
    </vehicle>
    <vehicle id="145" depart="201.82">
        <route edges="0 1 2 3 4 5 6 7 8 9 10 11 E0 E1 E2"/>
    </vehicle>
    <vehicle id="146" depart="203.21">
        <route edges="E0 E1 E2 E3 E4 E5 E6 E7 E8 9 10 11 0 1 2 3 4 5 6"/>
    </vehicle>
    <vehicle id="147" depart="204.60">
        <route edges="E2 E3 E4 E5 E6 E7 E8 9 10 11 C0 C1 C2 C3 C4 C5 C6"/>
    </vehicle>
    <vehicle id="148" depart="205.99">
        <route edges="C2 C3 C4 C5 C6 C7 C8 9 10 11 0"/>
    </vehicle>
    <vehicle id="149" depart="207.39">
        <route edges="10 11 E0 E1 E2 E3 E4 E5"/>
    </vehicle>
    <vehicle id="150" depart="208.78">
        <route edges="E6 E7 E8 9 10 11 C0 C1 C2 C3 C4 C5 C6"/>
    </vehicle>
    <vehicle id="151" depart="210.17">
        <route edges="E4 E5 E6 E7 E8 9 10 11 C0 C1 C2 C3 C4 C5 C6 C7"/>
    </vehicle>
    <vehicle id="152" depart="211.56">
        <route edges="3 4 5 6 7 8 9 10 11 0 1 2"/>
    </vehicle>
    <vehicle id="153" depart="212.95">
        <route edges="8 9 10 11 E0 E1 E2 E3 E4 E5"/>
    </vehicle>
    <vehicle id="154" depart="214.34">
        <route edges="E3 E4"/>
    </vehicle>
    <vehicle id="155" depart="215.74">
        <route edges="E6 E7 E8 9 10 11 0 1 2 3 4 5"/>
    </vehicle>
    <vehicle id="156" depart="217.13">
        <route edges="6 7 8 9 10 11"/>
    </vehicle>
    <vehicle id="157" depart="218.52">
        <route edges="E24 C5 C6 C7 C8 9 10 11 E0 E1 E2 E3 E4 E5"/>
    </vehicle>
    <vehicle id="158" depart="219.91">
        <route edges="C1 C2 C3 C4 C5 C6 C7 C8 9 10 11 E0"/>
    </vehicle>
    <vehicle id="159" depart="221.30">
        <route edges="3 4 5 6 7 8 9 10 11 E0 E1 E2 E3 E4 E5 E6"/>
    </vehicle>
    <vehicle id="160" depart="222.70">
        <route edges="E5 E6 E7 E8"/>
    </vehicle>
    <vehicle id="161" depart="224.09">
        <route edges="E3 E4"/>
    </vehicle>
    <vehicle id="162" depart="225.48">
        <route edges="0 1 2 3 4 5 6 7 8 9 10 11 E0 E1 E2 E3 E14"/>
    </vehicle>
    <vehicle id="163" depart="226.87">
        <route edges="9 10 11 E0 E1 E2 E3 E4 E5 E6"/>
    </vehicle>
    <vehicle id="164" depart="228.26">
        <route edges="E3 E4"/>
    </vehicle>
    <vehicle id="165" depart="229.66">
        <route edges="E3 E4 E5 E6 E7 E8 9 10 11 0 1 2 3 4 5 6 7"/>
    </vehicle>
    <vehicle id="166" depart="231.05">
        <route edges="E24 C5 C6 C7 C8 9 10 11"/>
    </vehicle>
    <vehicle id="167" depart="232.44">
        <route edges="E5 E6 E7 E8 9 10 11 E0 E1 E2 E3 E4"/>
    </vehicle>
    <vehicle id="168" depart="233.83">
        <route edges="5 6 7 8 9 10 11 C0 C1 C2 C3 E25"/>
    </vehicle>
    <vehicle id="169" depart="235.22">
        <route edges="C3 C4 C5 C6 C7 C8 9 10 11 0 1 2 3 4 5 6 7 8"/>
    </vehicle>
    <vehicle id="170" depart="236.61">
        <route edges="E3 E4 E5 E6 E7 E8 9 10 11 0 1 2 3 4 5"/>
    </vehicle>
    <vehicle id="171" depart="238.01">
        <route edges="0 1 2 3 4"/>
    </vehicle>
    <vehicle id="172" depart="239.40">
        <route edges="9 10 11 E0 E1 E2 E3 E4"/>
    </vehicle>
    <vehicle id="173" depart="240.79">
        <route edges="E8 9 10 11 0 1 2 3 4 5 6 7"/>
    </vehicle>
    <vehicle id="174" depart="242.18">
        <route edges="E0 E1 E2 E3 E4 E5 E6 E7 E8 9 10 11 C0 C1"/>
    </vehicle>
    <vehicle id="175" depart="243.57">
        <route edges="E9 5 6 7 8 9 10 11 C0 C1 C2 C3 C4 C5 C6"/>
    </vehicle>
    <vehicle id="176" depart="244.97">
        <route edges="E7 E8 9 10 11"/>
    </vehicle>
    <vehicle id="177" depart="246.36">
        <route edges="E8 9 10 11 0 1 2 3 4"/>
    </vehicle>
    <vehicle id="178" depart="247.75">
        <route edges="E8 9 10 11 0 1 2 3 4 5 6 7"/>
    </vehicle>
    <vehicle id="179" depart="249.14">
        <route edges="11 C0 C1 C2"/>
    </vehicle>
    <vehicle id="180" depart="250.53">
        <route edges="E13 E5 E6 E7 E8 9 10 11 0 1 2 3 4 5 6 7 8"/>
    </vehicle>
    <vehicle id="181" depart="251.92">
        <route edges="C8 9 10 11 C0 C1 C2 C3 C4 C5"/>
    </vehicle>
    <vehicle id="182" depart="253.32">
        <route edges="C1 C2 C3 C4 C5 C6 C7"/>
    </vehicle>
    <vehicle id="183" depart="254.71">
        <route edges="6 7 8 9 E11"/>
    </vehicle>
    <vehicle id="184" depart="256.10">
        <route edges="0 1 2 3 4 5 6 7 8 9 10 11 E0 E1 E2 E3 E4 E5 E6"/>
    </vehicle>
    <vehicle id="185" depart="257.49">
        <route edges="C6 C7 C8 9 E11"/>
    </vehicle>
    <vehicle id="186" depart="258.88">
        <route edges="E2 E3 E4 E5 E6 E7 E8 9 10 11 E0 E1"/>
    </vehicle>
    <vehicle id="187" depart="260.28">
        <route edges="C0 C1 C2 C3 C4 C5 C6 C7 C8 9 10"/>
    </vehicle>
    <vehicle id="188" depart="261.67">
        <route edges="E1 E2 E3 E4 E5 E6 E7 E8 9"/>
    </vehicle>
    <vehicle id="189" depart="263.06">
        <route edges="8 9 10 11 E0 E1 E2 E3"/>
    </vehicle>
    <vehicle id="190" depart="264.45">
        <route edges="E13 E5 E6 E7 E8 9 10 11 0 1 2 3 4 5 6 7 8"/>
    </vehicle>
    <vehicle id="191" depart="265.84">
        <route edges="8 9 10 11 C0 C1"/>
    </vehicle>
    <vehicle id="192" depart="267.24">
        <route edges="C1 C2 C3 C4 C5 C6 C7 C8 9 10 11 0 1 2 3 4 5 6 7 8"/>
    </vehicle>
    <vehicle id="193" depart="268.63">
        <route edges="2 3 4 5 6 7 8 9 10 11 C0 C1 C2"/>
    </vehicle>
    <vehicle id="194" depart="270.02">
        <route edges="E7 E8 9 10 11 0 1 2 3 E10"/>
    </vehicle>
    <vehicle id="195" depart="271.41">
        <route edges="E6 E7 E8 9 10 11 C0 C1 C2 C3 C4 C5 C6 C7 C8"/>
    </vehicle>
    <vehicle id="196" depart="272.80">
        <route edges="8 9 10 11 C0 C1 C2 C3 C4 C5 C6"/>
    </vehicle>
    <vehicle id="197" depart="274.19">
        <route edges="0 1 2 3 4 5 6 7"/>
    </vehicle>
    <vehicle id="198" depart="275.59">
        <route edges="C2 C3 C4 C5 C6 C7"/>
    </vehicle>
    <vehicle id="199" depart="276.98">
        <route edges="E1 E2 E3 E4 E5 E6 E7 E8 9 10 11 C0 C1 C2 C3"/>
    </vehicle>
    <vehicle id="200" depart="278.37">
        <route edges="C3 C4 C5 C6 C7 C8 9 10 11 0 1 2 3 4 5"/>
    </vehicle>
    <vehicle id="201" depart="279.76">
        <route edges="C4 C5 C6 C7 C8 9 10 11 E0 E1 E2 E3 E4 E5"/>
    </vehicle>
    <vehicle id="202" depart="281.15">
        <route edges="E3 E4 E5 E6 E7 E8 9 10 11 0 1 2 3"/>
    </vehicle>
    <vehicle id="203" depart="282.55">
        <route edges="10 11 C0 C1 C2 C3 C4 C5"/>
    </vehicle>
    <vehicle id="204" depart="283.94">
        <route edges="E0 E1 E2 E3 E4 E5 E6 E7 E8 9"/>
    </vehicle>
    <vehicle id="205" depart="285.33">
        <route edges="E3 E14"/>
    </vehicle>
    <vehicle id="206" depart="286.72">
        <route edges="E1 E2 E3 E4 E5 E6 E7 E8 9 10 11 0 1 2 3 4 5"/>
    </vehicle>
    <vehicle id="207" depart="288.11">
        <route edges="4 5 6 7 8 9 10 11 0"/>
    </vehicle>
    <vehicle id="208" depart="289.50">
        <route edges="6 7 8 9 10 11 C0 C1 C2 C3 C4"/>
    </vehicle>
    <vehicle id="209" depart="290.90">
        <route edges="E4 E5 E6 E7 E8 9 10"/>
    </vehicle>
    <vehicle id="210" depart="292.29">
        <route edges="C2 C3 C4 C5 C6 C7 C8 9 10 11 E0"/>
    </vehicle>
    <vehicle id="211" depart="293.68">
        <route edges="4 5 6 7 8 9 10 11 0 1 2 3 E10"/>
    </vehicle>
    <vehicle id="212" depart="295.07">
        <route edges="C4 C5 C6 C7 C8 9 10 11 0 1 2 3 4 5 6"/>
    </vehicle>
    <vehicle id="213" depart="296.46">
        <route edges="E1 E2 E3 E4 E5 E6 E7 E8 9 10 11 0"/>
    </vehicle>
    <vehicle id="214" depart="297.86">
        <route edges="E2"/>
    </vehicle>
    <vehicle id="215" depart="299.25">
        <route edges="11 C0 C1 C2"/>
    </vehicle>
    <vehicle id="216" depart="300.64">
        <route edges="3 4 5 6 7 8 9 10 11 E0 E1 E2 E3 E4 E5 E6 E7"/>
    </vehicle>
    <vehicle id="217" depart="302.03">
        <route edges="C5 C6 C7 C8 9 10 11 0 1"/>
    </vehicle>
    <vehicle id="218" depart="303.42">
        <route edges="6 7 8 9 10 11 E0 E1 E2 E3"/>
    </vehicle>
    <vehicle id="219" depart="304.82">
        <route edges="C3 E25"/>
    </vehicle>
    <vehicle id="220" depart="306.21">
        <route edges="E1 E2 E3 E4 E5 E6 E7 E8"/>
    </vehicle>
    <vehicle id="221" depart="307.60">
        <route edges="C8 9 10 11 E0 E1 E2 E3 E4 E5 E6 E7"/>
    </vehicle>
    <vehicle id="222" depart="308.99">
        <route edges="E6 E7 E8 9 10 11 C0 C1 C2 C3 C4 C5 C6 C7 C8"/>
    </vehicle>
    <vehicle id="223" depart="310.38">
        <route edges="E13 E5 E6 E7 E8 9 10 11 C0 C1 C2 C3 C4 C5"/>
    </vehicle>
    <vehicle id="224" depart="311.77">
        <route edges="E4 E5 E6 E7 E8 9 10 11 C0 C1 C2 C3 C4 C5 C6"/>
    </vehicle>
    <vehicle id="225" depart="313.17">
        <route edges="E6 E7 E8 9 10 11 E0 E1 E2 E3 E14"/>
    </vehicle>
    <vehicle id="226" depart="314.56">
        <route edges="C4 C5 C6 C7 C8 9 10 11 0 1 2 3 4 5 6"/>
    </vehicle>
    <vehicle id="227" depart="315.95">
        <route edges="6 7 8 9 10 11 E0"/>
    </vehicle>
    <vehicle id="228" depart="317.34">
        <route edges="E24 C5"/>
    </vehicle>
    <vehicle id="229" depart="318.73">
        <route edges="E0 E1 E2 E3 E4 E5 E6 E7 E8 9 10 11 0 1 2 3 4 5 6 7"/>
    </vehicle>
    <vehicle id="230" depart="320.13">
        <route edges="10 11 0 1 2 3 4 5 6 7"/>
    </vehicle>
    <vehicle id="231" depart="321.52">
        <route edges="7 8"/>
    </vehicle>
    <vehicle id="232" depart="322.91">
        <route edges="C6 C7 C8 9 10 11 0 1 2"/>
    </vehicle>
    <vehicle id="233" depart="324.30">
        <route edges="5 6 7 8 9 10 11 0 1 2 3 E10"/>
    </vehicle>
    <vehicle id="234" depart="325.69">
        <route edges="E13 E5 E6 E7 E8 9 10"/>
    </vehicle>
    <vehicle id="235" depart="327.08">
        <route edges="C1 C2 C3 C4 C5 C6"/>
    </vehicle>
    <vehicle id="236" depart="328.48">
        <route edges="C2 C3 C4 C5 C6 C7 C8 9 10 11 0 1 2 3 4 5"/>
    </vehicle>
    <vehicle id="237" depart="329.87">
        <route edges="C2 C3 C4 C5 C6 C7 C8 9 10 11 E0 E1 E2 E3 E4 E5"/>
    </vehicle>
    <vehicle id="238" depart="331.26">
        <route edges="C7 C8 9 10 11 0 1 2 3 E10"/>
    </vehicle>
    <vehicle id="239" depart="332.65">
        <route edges="E5 E6 E7 E8 9 10 11 E0 E1 E2"/>
    </vehicle>
    <vehicle id="240" depart="334.04">
        <route edges="C0 C1 C2 C3 C4 C5 C6 C7 C8 9 10 11 0"/>
    </vehicle>
    <vehicle id="241" depart="335.44">
        <route edges="9 10 11 E0 E1 E2 E3 E14"/>
    </vehicle>
    <vehicle id="242" depart="336.83">
        <route edges="E5 E6 E7"/>
    </vehicle>
    <vehicle id="243" depart="338.22">
        <route edges="C2 C3 C4 C5 C6 C7 C8 9 10 11 E0 E1 E2 E3 E14"/>
    </vehicle>
    <vehicle id="244" depart="339.61">
        <route edges="C6 C7 C8"/>
    </vehicle>
    <vehicle id="245" depart="341.00">
        <route edges="5"/>
    </vehicle>
    <vehicle id="246" depart="342.40">
        <route edges="C2 C3 C4 C5 C6 C7 C8 9 10 11 0"/>
    </vehicle>
    <vehicle id="247" depart="343.79">
        <route edges="9 10 11 0 1 2 3 E10"/>
    </vehicle>
    <vehicle id="248" depart="345.18">
        <route edges="C1 C2 C3 C4 C5 C6 C7 C8 9 10 11 0 1 2 3"/>
    </vehicle>
    <vehicle id="249" depart="346.57">
        <route edges="C3 C4 C5 C6 C7 C8 9 10 11 0 1 2"/>
    </vehicle>
    <vehicle id="250" depart="347.96">
        <route edges="E0 E1 E2 E3 E4 E5 E6 E7 E8 9 10 11 0"/>
    </vehicle>
    <vehicle id="251" depart="349.35">
        <route edges="C1 C2 C3 C4 C5 C6 C7"/>
    </vehicle>
    <vehicle id="252" depart="350.75">
        <route edges="0 1 2 3 4 5 6 7 8 9 10 11 E0"/>
    </vehicle>
    <vehicle id="253" depart="352.14">
        <route edges="2 3 4 5 6 7 8 9 10 11 C0 C1 C2 C3"/>
    </vehicle>
    <vehicle id="254" depart="353.53">
        <route edges="1 2 3 4 5 6 7 8 9 10 11 C0"/>
    </vehicle>
    <vehicle id="255" depart="354.92">
        <route edges="5 6 7 8 9"/>
    </vehicle>
    <vehicle id="256" depart="356.31">
        <route edges="E2 E3 E4 E5 E6 E7 E8 9 10 11 C0"/>
    </vehicle>
    <vehicle id="257" depart="357.71">
        <route edges="E2 E3"/>
    </vehicle>
    <vehicle id="258" depart="359.10">
        <route edges="6 7 8 9 10"/>
    </vehicle>
    <vehicle id="259" depart="360.49">
        <route edges="0 1 2 3 4 5 6 7 8 9 10 11 C0 C1 C2 C3 C4 C5 C6"/>
    </vehicle>
    <vehicle id="260" depart="361.88">
        <route edges="E9 5 6 7 8 9"/>
    </vehicle>
    <vehicle id="261" depart="363.27">
        <route edges="E1 E2"/>
    </vehicle>
    <vehicle id="262" depart="364.66">
        <route edges="E1 E2 E3 E14"/>
    </vehicle>
    <vehicle id="263" depart="366.06">
        <route edges="E8 9 10 11 0 1 2 3 4"/>
    </vehicle>
    <vehicle id="264" depart="367.45">
        <route edges="0 1 2 3"/>
    </vehicle>
    <vehicle id="265" depart="368.84">
        <route edges="2 3 4 5 6 7 8 9 10 11 E0 E1"/>
    </vehicle>
    <vehicle id="266" depart="370.23">
        <route edges="C7 C8 9 10 11 0 1 2 3 4 5"/>
    </vehicle>
    <vehicle id="267" depart="371.62">
        <route edges="E12 11 E0 E1 E2"/>
    </vehicle>
    <vehicle id="268" depart="373.02">
        <route edges="3 4 5 6 7 8 9 10 11 C0 C1 C2 C3 C4 C5 C6 C7 C8"/>
    </vehicle>
    <vehicle id="269" depart="374.41">
        <route edges="E2 E3 E4 E5 E6 E7 E8 9 10 11"/>
    </vehicle>
    <vehicle id="270" depart="375.80">
        <route edges="E3 E4 E5 E6 E7"/>
    </vehicle>
    <vehicle id="271" depart="377.19">