<?xml version="1.0" encoding="UTF-8"?>

<!-- generated on 2024-07-16 15:53:45.681895 by randomtrips.py v1_14_1+0000-f654d7b963e
<configuration>
    <end value="3000"/>
    <insertion-density value="29.0"/>
    <net-file value="scenario2/sumo/ring.net.xml"/>
    <route-file value="scenario2/sumo/traffic29_2.rou.xml"/>
</configuration>
-->

<!-- generated on 2024-07-16 15:53:45 by Eclipse SUMO duarouter Version 1.14.1
<configuration xmlns:xsi="http://www.w3.org/2001/XMLSchema-instance" xsi:noNamespaceSchemaLocation="http://sumo.dlr.de/xsd/duarouterConfiguration.xsd">

    <input>
        <net-file value="scenario2/sumo/ring.net.xml"/>
        <route-files value="trips.trips.xml"/>
    </input>

    <output>
        <output-file value="scenario2/sumo/traffic29_2.rou.xml"/>
        <alternatives-output value="NUL"/>
    </output>

    <time>
        <begin value="0"/>
        <end value="3000"/>
    </time>

    <report>
        <no-warnings value="true"/>
        <ignore-errors value="true"/>
        <no-step-log value="true"/>
    </report>

</configuration>
-->

<routes xmlns:xsi="http://www.w3.org/2001/XMLSchema-instance" xsi:noNamespaceSchemaLocation="http://sumo.dlr.de/xsd/routes_file.xsd">
    <vehicle id="0" depart="0.00">
        <route edges="E0 E1 E2 E3 E4 E5 E6 E7 E8 9 10 11 0"/>
    </vehicle>
    <vehicle id="1" depart="4.49">
        <route edges="7 8 9 10 11 0 1 2 3 4 5"/>
    </vehicle>
    <vehicle id="2" depart="8.98">
        <route edges="E2 E3 E4 E5 E6 E7 E8 9 10 11 0 1 2 3 E10"/>
    </vehicle>
    <vehicle id="3" depart="13.47">
        <route edges="E6 E7 E8 9 10"/>
    </vehicle>
    <vehicle id="4" depart="17.97">
        <route edges="C10 C11 C0 C1 C2 E3 E4 E5 E6 E7 E8 9 10 11 0 1"/>
    </vehicle>
    <vehicle id="5" depart="22.46">
        <route edges="5 6 7 8 9 10 11 E0 E1 E2 E3 E4 E5 C6"/>
    </vehicle>
    <vehicle id="6" depart="26.95">
        <route edges="0 1 2 3 4"/>
    </vehicle>
    <vehicle id="7" depart="31.44">
        <route edges="E1 E2 E3 E4 E5 C6 C7"/>
    </vehicle>
    <vehicle id="8" depart="35.93">
        <route edges="5 6 7 8 9 10 11 E0 E1 E2 E3 E4 E5 C6 C7 C8 C9"/>
    </vehicle>
    <vehicle id="9" depart="40.42">
        <route edges="E30 C11 C0 C1 C2 E3 E4 E5 E6 E7 E8 9 10 11 0"/>
    </vehicle>
    <vehicle id="10" depart="44.91">
        <route edges="E30 C11 C0 C1 C2 E3 E4 E5 E6 E7 E8 9 10 11 0 1 2 3 E10"/>
    </vehicle>
    <vehicle id="11" depart="49.40">
        <route edges="9 10 11 0 1 2 3"/>
    </vehicle>
    <vehicle id="12" depart="53.90">
        <route edges="E8 9"/>
    </vehicle>
    <vehicle id="13" depart="58.39">
        <route edges="11"/>
    </vehicle>
    <vehicle id="14" depart="62.88">
        <route edges="E4 E5 C6 C7 C8 C9"/>
    </vehicle>
    <vehicle id="15" depart="67.37">
        <route edges="E30 C11 C0 C1 C2 E3 E4 E5 E6 E7 E8 9 E11"/>
    </vehicle>
    <vehicle id="16" depart="71.86">
        <route edges="C7 C8 C9 C10 C11 C0 C1 C2 E3 E4 E5 E6 E7 E8"/>
    </vehicle>
    <vehicle id="17" depart="76.35">
        <route edges="C0 C1 C2 E3 E4 E5 C6 C7"/>
    </vehicle>
    <vehicle id="18" depart="80.84">
        <route edges="E4 E5 E6 E7 E8 9 10 11 E0"/>
    </vehicle>
    <vehicle id="19" depart="85.33">
        <route edges="E5 C6 C7 C8"/>
    </vehicle>
    <vehicle id="20" depart="89.83">
        <route edges="E12 11 0 1"/>
    </vehicle>
    <vehicle id="21" depart="94.32">
        <route edges="5 6 7"/>
    </vehicle>
    <vehicle id="22" depart="98.81">
        <route edges="10 11 0 1 2 3 4 5"/>
    </vehicle>
    <vehicle id="23" depart="103.30">
        <route edges="11 0 1 2 3 4 5 6 7"/>
    </vehicle>
    <vehicle id="24" depart="107.79">
        <route edges="E0 E1 E2 E3 E4 E5 C6 C7 C8 C9 C10 C11 C0"/>
    </vehicle>
    <vehicle id="25" depart="112.28">
        <route edges="C0 C1 C2 E3 E4 E5 E6 E7 E8 9 10 11 0 1 2 3 4 5"/>
    </vehicle>
    <vehicle id="26" depart="116.77">
        <route edges="7 8 9 10 11 E0 E1 E2 E3 E4 E5 E6"/>
    </vehicle>
    <vehicle id="27" depart="121.26">
        <route edges="E1 E2 E3 E4 E5 C6 C7 C8 C9"/>
    </vehicle>
    <vehicle id="28" depart="125.76">
        <route edges="3 4 5 6 7 8 9 E11"/>
    </vehicle>
    <vehicle id="29" depart="130.25">
        <route edges="3 4 5 6 7 8 9 10 11 E0 E1 E2 E3 E4 E5 C6 C7 C8 C9 C10 C11 C0"/>
    </vehicle>
    <vehicle id="30" depart="134.74">
        <route edges="E9 5 6 7 8 9 10 11 E0"/>
    </vehicle>
    <vehicle id="31" depart="139.23">
        <route edges="C7 C8 C9 C10 C11 C0 C1 C2 E3 E4 E5 E6 E7 E8 9 10 11 0 1 2 3 E10"/>
    </vehicle>
    <vehicle id="32" depart="143.72">
        <route edges="E4 E5 E6 E7 E8 9 10 11 E0 E1 E2"/>
    </vehicle>
    <vehicle id="33" depart="148.21">
        <route edges="5 6 7 8 9 10 11 0 1"/>
    </vehicle>
    <vehicle id="34" depart="152.70">
        <route edges="8 9 10 11 0 1 2 3 4 5 6 7"/>
    </vehicle>
    <vehicle id="35" depart="157.19">
        <route edges="5 6 7 8 9 10 11 E0 E1 E2 E3 E4 E5 E6 E7"/>
    </vehicle>
    <vehicle id="36" depart="161.69">
        <route edges="E5 E6 E7 E8 9 10 11 0 1 2 3 4 5 6 7 8"/>
    </vehicle>
    <vehicle id="37" depart="166.18">
        <route edges="E1 E2 E3 E4 E5 C6 C7 C8 C9 C10 C11 C0 C1"/>
    </vehicle>
    <vehicle id="38" depart="170.67">
        <route edges="E7 E8 9 10 11 E0 E1 E2 E3 E4 E5 C6 C7 C8 C9 C10 C11"/>
    </vehicle>
    <vehicle id="39" depart="175.16">
        <route edges="7 8 9 10 11 0 1 2 3 4 5 6"/>
    </vehicle>
    <vehicle id="40" depart="179.65">
        <route edges="C8 C9 C10 C11 C0 C1 C2 E3 E4 E5 E6 E7 E8 9 10 11 0 1 2 3 4 5 6"/>
    </vehicle>
    <vehicle id="41" depart="184.14">
        <route edges="C8 C9 C10 C11 C0 C1 C2 E3 E4 E5"/>
    </vehicle>
    <vehicle id="42" depart="188.63">
        <route edges="C1 C2 E3 E4 E5 E6 E7 E8 9 10 11 0 1 2 3 4 5"/>
    </vehicle>
    <vehicle id="43" depart="193.13">
        <route edges="E9 5 6 7 8 9 10 11 E0 E1 E2 E3 E4 E5 C6"/>
    </vehicle>
    <vehicle id="44" depart="197.62">
        <route edges="11 0 1"/>
    </vehicle>
    <vehicle id="45" depart="202.11">
        <route edges="11 E0"/>
    </vehicle>
    <vehicle id="46" depart="206.60">
        <route edges="E3 E4 E5 C6 C7 C8 C9 C10"/>
    </vehicle>
    <vehicle id="47" depart="211.09">
        <route edges="10 11 E0 E1 E2 E3 E4 E5 C6 C7 C8 C9 C10 C11 C0"/>
    </vehicle>
    <vehicle id="48" depart="215.58">
        <route edges="E9 5 6 7 8 9 10 11 E0 E1 E2 E3 E4 E5 C6"/>
    </vehicle>
    <vehicle id="49" depart="220.07">
        <route edges="E9 5 6 7 8 9 10 11 E0 E1 E2 E3 E4"/>
    </vehicle>
    <vehicle id="50" depart="224.56">
        <route edges="0 1 2 3 4 5 6 7 8 9 E11"/>
    </vehicle>
    <vehicle id="51" depart="229.06">
        <route edges="E12 11 E0 E1 E2 E3 E4 E5 C6 C7"/>
    </vehicle>
    <vehicle id="52" depart="233.55">
        <route edges="7 8 9 10 11 E0"/>
    </vehicle>
    <vehicle id="53" depart="238.04">
        <route edges="11 E0 E1 E2 E3 E4 E5 C6 C7 C8 C9 C10"/>
    </vehicle>
    <vehicle id="54" depart="242.53">
        <route edges="C11 C0 C1 C2 E3 E4 E5 E6 E7"/>
    </vehicle>
    <vehicle id="55" depart="247.02">
        <route edges="E5 E6 E7 E8 9 10 11 0 1 2 3 4 5 6"/>
    </vehicle>
    <vehicle id="56" depart="251.51">
        <route edges="C6 C7 C8 C9 C10 C11 C0 C1 C2 E3 E4 E5 E6 E7 E8 9 10 11 0 1 2 3 4"/>
    </vehicle>
    <vehicle id="57" depart="256.00">
        <route edges="E7 E8 9 10 11 E0 E1 E2 E3 E4"/>
    </vehicle>
    <vehicle id="58" depart="260.49">
        <route edges="8 9 10 11 E0"/>
    </vehicle>
    <vehicle id="59" depart="264.99">
        <route edges="C9 C10 C11 C0 C1 C2 E3 E4 E5 E6 E7 E8 9 10 11 0 1 2 3"/>
    </vehicle>
    <vehicle id="60" depart="269.48">
        <route edges="E2 E3 E4 E5 C6 C7"/>
    </vehicle>
    <vehicle id="61" depart="273.97">
        <route edges="E3 E4 E5 C6 C7"/>
    </vehicle>
    <vehicle id="62" depart="278.46">
        <route edges="0 1 2 3 4 5 6 7 8 9"/>
    </vehicle>
    <vehicle id="63" depart="282.95">
        <route edges="0 1 2 3 4 5 6 7 8 9 10 11 E0 E1 E2 E3 E4 E5 E6"/>
    </vehicle>
    <vehicle id="64" depart="287.44">
        <route edges="E5 E6 E7 E8 9 10 11 E0 E1 E2 E3"/>
    </vehicle>
    <vehicle id="65" depart="291.93">
        <route edges="8 9 10 11 0 1"/>
    </vehicle>
    <vehicle id="66" depart="296.42">
        <route edges="E5 E6 E7"/>
    </vehicle>
    <vehicle id="67" depart="300.92">
        <route edges="10 11 E0 E1 E2 E3 E4 E5 C6 C7 C8 C9 C10 C11 C0 C1 C2"/>
    </vehicle>
    <vehicle id="68" depart="305.41">
        <route edges="10 11 E0 E1 E2 E3 E14"/>
    </vehicle>
    <vehicle id="69" depart="309.90">
        <route edges="E3 E4 E5 E6 E7 E8 9 10 11 0 1 2"/>
    </vehicle>
    <vehicle id="70" depart="314.39">
        <route edges="C2 E3 E4 E5 C6 C7"/>
    </vehicle>
    <vehicle id="71" depart="318.88">
        <route edges="7 8 9 10 11 E0 E1 E2 E3 E4"/>
    </vehicle>
    <vehicle id="72" depart="323.37">
        <route edges="C10 C11 C0 C1 C2 E3 E4 E5 E6 E7 E8 9 10 11 0 1 2 3 4 5"/>
    </vehicle>
    <vehicle id="73" depart="327.86">
        <route edges="C7 C8 C9 C10 C11 C0 C1 C2 E3 E4 E5 E6 E7 E8 9 E11"/>
    </vehicle>
    <vehicle id="74" depart="332.35">
        <route edges="4 5 6 7 8"/>
    </vehicle>
    <vehicle id="75" depart="336.85">
        <route edges="E9 5 6 7 8 9 10 11 E0 E1"/>
    </vehicle>
    <vehicle id="76" depart="341.34">
        <route edges="C10 C11 C0 C1 C2 E3 E4 E5 C6"/>
    </vehicle>
    <vehicle id="77" depart="345.83">
        <route edges="2 3 4 5"/>
    </vehicle>
    <vehicle id="78" depart="350.32">
        <route edges="9 10 11 E0 E1 E2 E3 E4 E5 C6 C7 C8 C9"/>
    </vehicle>
    <vehicle id="79" depart="354.81">
        <route edges="5"/>
    </vehicle>
    <vehicle id="80" depart="359.30">
        <route edges="10 11 E0"/>
    </vehicle>
    <vehicle id="81" depart="363.79">
        <route edges="5 6 7 8 9 10 11 E0 E1 E2 E3 E4 E5"/>
    </vehicle>
    <vehicle id="82" depart="368.29">
        <route edges="E5 E6 E7 E8 9 10"/>
    </vehicle>
    <vehicle id="83" depart="372.78">
        <route edges="6 7 8 9 10 11 E0 E1"/>
    </vehicle>
    <vehicle id="84" depart="377.27">
        <route edges="5 6 7 8 9 10 11 0 1 2"/>
    </vehicle>
    <vehicle id="85" depart="381.76">
        <route edges="E7 E8 9 10 11 E0 E1 E2 E3 E4 E5 C6 C7 C8"/>
    </vehicle>
    <vehicle id="86" depart="386.25">
        <route edges="C2 E3 E4 E5 E6 E7 E8 9 10 11 E0 E1 E2"/>
    </vehicle>
    <vehicle id="87" depart="390.74">
        <route edges="E30 C11 C0 C1 C2 E3 E4 E5 E6 E7 E8 9 10 11 0 1 2 3 4"/>
    </vehicle>
    <vehicle id="88" depart="395.23">
        <route edges="11 E0 E1 E2 E3 E4 E5 C6 C7 C8 C9 C10"/>
    </vehicle>
    <vehicle id="89" depart="399.72">
        <route edges="C10 C11"/>
    </vehicle>
    <vehicle id="90" depart="404.22">
        <route edges="E13 E5 E6 E7 E8 9 10 11 E0 E1"/>
    </vehicle>
    <vehicle id="91" depart="408.71">
        <route edges="E9 5 6 7 8 9 10 11"/>
    </vehicle>
    <vehicle id="92" depart="413.20">
        <route edges="C1 C2 E3 E4 E5 E6 E7 E8 9"/>
    </vehicle>
    <vehicle id="93" depart="417.69">
        <route edges="E5 E6 E7 E8 9 10 11 0 1 2 3 4 5 6"/>
    </vehicle>
    <vehicle id="94" depart="422.18">
        <route edges="4 5 6 7 8 9 10 11 E0 E1 E2 E3 E4 E5 C6 C7 C8 C9 C10 C11"/>
    </vehicle>
    <vehicle id="95" depart="426.67">
        <route edges="C10 C11 C0 C1 C2 E3 E4 E5 E6 E7 E8 9 10 11 0 1 2 3 4 5 6 7"/>
    </vehicle>
    <vehicle id="96" depart="431.16">
        <route edges="6 7 8 9 10 11 E0 E1 E2 E3 E4 E5 E6"/>
    </vehicle>
    <vehicle id="97" depart="435.65">
        <route edges="C11 C0 C1 C2 E3 E4"/>
    </vehicle>
    <vehicle id="98" depart="440.15">
        <route edges="C7 C8 C9 C10 C11 C0 C1 C2 E3 E4 E5 E6 E7 E8 9 10 11 0 1"/>
    </vehicle>
    <vehicle id="99" depart="444.64">
        <route edges="E9 5 6 7 8 9 10 11 E0 E1 E2 E3"/>
    </vehicle>
    <vehicle id="100" depart="449.13">
        <route edges="E8 9 10 11 E0 E1 E2 E3 E4 E5 E6"/>
    </vehicle>
    <vehicle id="101" depart="453.62">
        <route edges="E4 E5 E6 E7 E8 9 10 11 0 1 2 3"/>
    </vehicle>
    <vehicle id="102" depart="458.11">
        <route edges="C2 E3 E4 E5 E6 E7 E8 9 10 11 0 1 2 3 4 5"/>
    </vehicle>
    <vehicle id="103" depart="462.60">
        <route edges="C1 C2 E3 E4 E5 E6 E7 E8 9 10 11 0 1"/>
    </vehicle>
    <vehicle id="104" depart="467.09">
        <route edges="C0 C1 C2 E3 E4 E5 E6 E7 E8"/>
    </vehicle>
    <vehicle id="105" depart="471.58">
        <route edges="7 8 9 10 11 E0 E1 E2"/>
    </vehicle>
    <vehicle id="106" depart="476.08">
        <route edges="C11 C0 C1 C2 E3 E4 E5 C6 C7 C8 C9 C10"/>
    </vehicle>
    <vehicle id="107" depart="480.57">
        <route edges="E8"/>
    </vehicle>
    <vehicle id="108" depart="485.06">
        <route edges="C7 C8 C9 C10 C11 C0 C1 C2 E3 E4 E5 E6 E7 E8 9 E11"/>
    </vehicle>
    <vehicle id="109" depart="489.55">
        <route edges="3 4 5 6 7 8"/>
    </vehicle>
    <vehicle id="110" depart="494.04">
        <route edges="E8 9 10 11 E0 E1 E2 E3 E4 E5 C6 C7 C8"/>
    </vehicle>
    <vehicle id="111" depart="498.53">
        <route edges="C7 C8 C9 C10 C11 C0 C1 C2 E3 E14"/>
    </vehicle>
    <vehicle id="112" depart="503.02">
        <route edges="1 2 3 4 5 6 7 8 9 10 11 E0 E1 E2 E3 E4 E5 C6 C7 C8"/>
    </vehicle>
    <vehicle id="113" depart="507.51">
        <route edges="C6 C7 C8 C9 C10 C11 C0 C1 C2 E3"/>
    </vehicle>
    <vehicle id="114" depart="512.01">
        <route edges="3 4 5 6 7 8 9 10 11 E0 E1 E2 E3 E4 E5 E6 E7"/>
    </vehicle>
    <vehicle id="115" depart="516.50">
        <route edges="10 11 0 1 2 3 4"/>
    </vehicle>
    <vehicle id="116" depart="520.99">
        <route edges="C9 C10 C11 C0 C1 C2 E3 E4 E5 E6 E7 E8 9 10 11 E0 E1"/>
    </vehicle>
    <vehicle id="117" depart="525.48">
        <route edges="5 6 7 8 9 10 11 0 1 2"/>
    </vehicle>
    <vehicle id="118" depart="529.97">
        <route edges="E6 E7 E8 9 10 11 0 1 2 3 4 5 6"/>
    </vehicle>
    <vehicle id="119" depart="534.46">
        <route edges="C9 C10 C11 C0 C1 C2 E3 E4 E5 E6 E7 E8 9 10 11 E0"/>
    </vehicle>
    <vehicle id="120" depart="538.95">
        <route edges="C10 C11 C0 C1 C2 E3 E4 E5 C6 C7 C8"/>
    </vehicle>
    <vehicle id="121" depart="543.45">
        <route edges="C6 C7 C8 C9 C10 C11 C0 C1 C2 E3 E4 E5 E6"/>
    </vehicle>
    <vehicle id="122" depart="547.94">
        <route edges="4 5 6 7 8 9 E11"/>
    </vehicle>
    <vehicle id="123" depart="552.43">
        <route edges="6 7 8 9 10 11 E0 E1 E2 E3 E4 E5 C6 C7 C8 C9 C10 C11 C0 C1"/>
    </vehicle>
    <vehicle id="124" depart="556.92">
        <route edges="E1 E2 E3 E4 E5 E6 E7 E8 9 10 11 0 1 2 3 4 5 6 7 8"/>
    </vehicle>
    <vehicle id="125" depart="561.41">
        <route edges="8 9 10 11 E0 E1 E2 E3 E14"/>
    </vehicle>
    <vehicle id="126" depart="565.90">
        <route edges="10 11 E0 E1 E2 E3 E4 E5 C6 C7 C8 C9 C10 C11"/>
    </vehicle>
    <vehicle id="127" depart="570.39">
        <route edges="E9 5 6 7 8 9 10 11 E0 E1 E2 E3 E4 E5 E6 E7 E8"/>
    </vehicle>
    <vehicle id="128" depart="574.88">
        <route edges="10 11 0 1 2 3 4 5"/>
    </vehicle>
    <vehicle id="129" depart="579.38">
        <route edges="7 8 9 10 11 E0 E1 E2 E3 E4 E5 E6"/>
    </vehicle>
    <vehicle id="130" depart="583.87">
        <route edges="E5 E6 E7 E8 9 10 11 E0 E1 E2 E3 E4"/>
    </vehicle>
    <vehicle id="131" depart="588.36">
        <route edges="C0 C1 C2 E3 E4 E5 E6 E7 E8 9 10 11 0 1 2 3"/>
    </vehicle>
    <vehicle id="132" depart="592.85">
        <route edges="E4 E5 E6 E7 E8 9 10 11 0 1 2 3 E10"/>
    </vehicle>
    <vehicle id="133" depart="597.34">
        <route edges="C9 C10 C11 C0 C1 C2 E3 E4 E5 E6 E7 E8"/>
    </vehicle>
    <vehicle id="134" depart="601.83">
        <route edges="E1 E2 E3 E4 E5 E6 E7 E8 9 10 11 0"/>
    </vehicle>
    <vehicle id="135" depart="606.32">
        <route edges="E30 C11 C0 C1 C2 E3 E4 E5 E6 E7 E8 9 10 11 0 1 2 3 4 5 6 7 8"/>
    </vehicle>
    <vehicle id="136" depart="610.81">
        <route edges="E1 E2 E3 E4 E5 E6"/>
    </vehicle>
    <vehicle id="137" depart="615.31">
        <route edges="2 3 4 5 6 7 8 9 10 11"/>
    </vehicle>
    <vehicle id="138" depart="619.80">
        <route edges="11 E0 E1 E2 E3 E4 E5 C6 C7"/>
    </vehicle>
    <vehicle id="139" depart="624.29">
        <route edges="7 8 9 10 11 E0 E1 E2 E3 E4 E5 C6 C7 C8 C9"/>
    </vehicle>
    <vehicle id="140" depart="628.78">
        <route edges="E13 E5 E6 E7 E8 9 10 11 0 1 2 3 4"/>
    </vehicle>
    <vehicle id="141" depart="633.27">
        <route edges="E0 E1 E2 E3 E4 E5 E6 E7 E8 9 10 11 0 1 2 3 4 5 6"/>
    </vehicle>
    <vehicle id="142" depart="637.76">
        <route edges="C2 E3 E4 E5"/>
    </vehicle>
    <vehicle id="143" depart="642.25">
        <route edges="E4 E5 E6 E7 E8 9 10 11"/>
    </vehicle>
    <vehicle id="144" depart="646.74">
        <route edges="C10 C11 C0 C1 C2 E3 E4 E5 E6 E7 E8 9 10 11 0 1 2 3 4 5 6 7"/>
    </vehicle>
    <vehicle id="145" depart="651.24">
        <route edges="0 1 2 3 4 5 6 7 8 9 10 11 E0 E1 E2"/>
    </vehicle>
    <vehicle id="146" depart="655.73">
        <route edges="E0 E1 E2 E3 E4 E5 E6 E7 E8 9 10 11 0 1 2 3 4 5 6"/>
    </vehicle>
    <vehicle id="147" depart="660.22">
        <route edges="E2 E3 E4 E5 C6 C7"/>
    </vehicle>
    <vehicle id="148" depart="664.71">
        <route edges="C10 C11 C0 C1 C2 E3 E4 E5 E6 E7 E8 9 10 11 0"/>
    </vehicle>
    <vehicle id="149" depart="669.20">
        <route edges="10 11 E0 E1 E2 E3 E4 E5"/>
    </vehicle>
    <vehicle id="150" depart="673.69">
        <route edges="E6 E7 E8 9 10 11 E0 E1 E2 E3 E4 E5 C6 C7"/>
    </vehicle>
    <vehicle id="151" depart="678.18">
        <route edges="E4 E5 C6 C7 C8"/>
    </vehicle>
    <vehicle id="152" depart="682.67">
        <route edges="3 4 5 6 7 8 9 10 11 0 1 2"/>
    </vehicle>
    <vehicle id="153" depart="687.17">
        <route edges="8 9 10 11 E0 E1 E2 E3 E4 E5"/>
    </vehicle>
    <vehicle id="154" depart="691.66">
        <route edges="E30 C11 C0 C1 C2 E3 E4"/>
    </vehicle>
    <vehicle id="155" depart="696.15">
        <route edges="E6 E7 E8 9 10 11 0 1 2 3 4 5"/>
    </vehicle>
    <vehicle id="156" depart="700.64">
        <route edges="6 7 8 9 10 11"/>
    </vehicle>
    <vehicle id="157" depart="705.13">
        <route edges="E3 E4 E5"/>
    </vehicle>
    <vehicle id="158" depart="709.62">
        <route edges="C1 C2 E3 E4 E5 E6 E7 E8 9 10 11 E0"/>
    </vehicle>
    <vehicle id="159" depart="714.11">
        <route edges="3 4 5 6 7 8 9 10 11 E0 E1 E2 E3 E4 E5 E6"/>
    </vehicle>
    <vehicle id="160" depart="718.60">
        <route edges="E5 E6 E7 E8"/>
    </vehicle>
    <vehicle id="161" depart="723.10">
        <route edges="E30 C11 C0 C1 C2 E3 E4"/>
    </vehicle>
    <vehicle id="162" depart="727.59">
        <route edges="0 1 2 3 4 5 6 7 8 9 10 11 E0 E1 E2 E3 E14"/>
    </vehicle>
    <vehicle id="163" depart="732.08">
        <route edges="9 10 11 E0 E1 E2 E3 E4 E5 E6"/>
    </vehicle>
    <vehicle id="164" depart="736.57">
        <route edges="E30 C11 C0 C1 C2 E3 E4"/>
    </vehicle>
    <vehicle id="165" depart="741.06">
        <route edges="E30 C11 C0 C1 C2 E3 E4 E5 E6 E7 E8 9 10 11 0 1 2 3 4 5 6 7"/>
    </vehicle>
    <vehicle id="166" depart="745.55">
        <route edges="E3 E4 E5 E6 E7 E8 9 10 11"/>
    </vehicle>
    <vehicle id="167" depart="750.04">
        <route edges="E5 E6 E7 E8 9 10 11 E0 E1 E2 E3 E4"/>
    </vehicle>
    <vehicle id="168" depart="754.54">
        <route edges="5 6 7 8 9 10 11 E0 E1 E2 E3 E4 E5 C6 C7 C8 C9 E29"/>
    </vehicle>
    <vehicle id="169" depart="759.03">
        <route edges="C11 C0 C1 C2 E3 E4 E5 E6 E7 E8 9 10 11 0 1 2 3 4 5 6 7 8"/>
    </vehicle>
    <vehicle id="170" depart="763.52">
        <route edges="E30 C11 C0 C1 C2 E3 E4 E5 E6 E7 E8 9 10 11 0 1 2 3 4 5"/>
    </vehicle>
    <vehicle id="171" depart="768.01">
        <route edges="0 1 2 3 4"/>
    </vehicle>
    <vehicle id="172" depart="772.50">
        <route edges="9 10 11 E0 E1 E2 E3 E4"/>
    </vehicle>
    <vehicle id="173" depart="776.99">
        <route edges="E8 9 10 11 0 1 2 3 4 5 6 7"/>
    </vehicle>
    <vehicle id="174" depart="781.48">
        <route edges="E0 E1 E2 E3 E4 E5 C6 C7 C8 C9 C10 C11 C0 C1"/>
    </vehicle>
    <vehicle id="175" depart="785.97">
        <route edges="E9 5 6 7 8 9 10 11 E0 E1 E2 E3 E4 E5 C6 C7"/>
    </vehicle>
    <vehicle id="176" depart="790.47">
        <route edges="E7 E8 9 10 11"/>
    </vehicle>
    <vehicle id="177" depart="794.96">
        <route edges="E8 9 10 11 0 1 2 3 4"/>
    </vehicle>
    <vehicle id="178" depart="799.45">
        <route edges="E8 9 10 11 0 1 2 3 4 5 6 7"/>
    </vehicle>
    <vehicle id="179" depart="803.94">
        <route edges="11 E0 E1 E2 E3 E4 E5 C6 C7 C8 C9 C10"/>
    </vehicle>
    <vehicle id="180" depart="808.43">
        <route edges="E13 E5 E6 E7 E8 9 10 11 0 1 2 3 4 5 6 7 8"/>
    </vehicle>
    <vehicle id="181" depart="812.92">
        <route edges="C9 C10 C11 C0 C1 C2 E3 E4 E5 C6"/>
    </vehicle>
    <vehicle id="182" depart="817.41">
        <route edges="C1 C2 E3 E4 E5 C6 C7 C8"/>
    </vehicle>
    <vehicle id="183" depart="821.90">
        <route edges="6 7 8 9 E11"/>
    </vehicle>
    <vehicle id="184" depart="826.40">
        <route edges="0 1 2 3 4 5 6 7 8 9 10 11 E0 E1 E2 E3 E4 E5 E6"/>
    </vehicle>
    <vehicle id="185" depart="830.89">
        <route edges="C7 C8 C9 C10 C11 C0 C1 C2 E3 E4 E5 E6 E7 E8 9 E11"/>
    </vehicle>
    <vehicle id="186" depart="835.38">
        <route edges="E2 E3 E4 E5 E6 E7 E8 9 10 11 E0 E1"/>
    </vehicle>
    <vehicle id="187" depart="839.87">
        <route edges="C0 C1 C2 E3 E4 E5 E6 E7 E8 9 10"/>
    </vehicle>
    <vehicle id="188" depart="844.36">
        <route edges="E1 E2 E3 E4 E5 E6 E7 E8 9"/>
    </vehicle>
    <vehicle id="189" depart="848.85">
        <route edges="8 9 10 11 E0 E1 E2 E3"/>
    </vehicle>
    <vehicle id="190" depart="853.34">
        <route edges="E13 E5 E6 E7 E8 9 10 11 0 1 2 3 4 5 6 7 8"/>
    </vehicle>
    <vehicle id="191" depart="857.83">
        <route edges="8 9 10 11 E0 E1 E2 E3 E4 E5 C6 C7 C8 C9 C10 C11 C0 C1"/>
    </vehicle>
    <vehicle id="192" depart="862.33">
        <route edges="C1 C2 E3 E4 E5 E6 E7 E8 9 10 11 0 1 2 3 4 5 6 7 8"/>
    </vehicle>
    <vehicle id="193" depart="866.82">
        <route edges="2 3 4 5 6 7 8 9 10 11 E0 E1 E2 E3 E4 E5 C6 C7 C8 C9 C10"/>
    </vehicle>
    <vehicle id="194" depart="871.31">
        <route edges="E7 E8 9 10 11 0 1 2 3 E10"/>
    </vehicle>
    <vehicle id="195" depart="875.80">
        <route edges="E6 E7 E8 9 10 11 E0 E1 E2 E3 E4 E5 C6 C7 C8 C9"/>
    </vehicle>
    <vehicle id="196" depart="880.29">
        <route edges="8 9 10 11 E0 E1 E2 E3 E4 E5 C6 C7"/>
    </vehicle>
    <vehicle id="197" depart="884.78">
        <route edges="0 1 2 3 4 5 6 7"/>
    </vehicle>
    <vehicle id="198" depart="889.27">
        <route edges="C10 C11 C0 C1 C2 E3 E4 E5 C6 C7 C8"/>
    </vehicle>
    <vehicle id="199" depart="893.76">
        <route edges="E1 E2 E3 E4 E5 C6 C7 C8 C9 C10 C11"/>
    </vehicle>
    <vehicle id="200" depart="898.26">
        <route edges="C11 C0 C1 C2 E3 E4 E5 E6 E7 E8 9 10 11 0 1 2 3 4 5"/>
    </vehicle>
    <vehicle id="201" depart="902.75">
        <route edges="C2 E3 E4 E5"/>
    </vehicle>
    <vehicle id="202" depart="907.24">
        <route edges="E30 C11 C0 C1 C2 E3 E4 E5 E6 E7 E8 9 10 11 0 1 2 3"/>
    </vehicle>
    <vehicle id="203" depart="911.73">
        <route edges="10 11 E0 E1 E2 E3 E4 E5 C6"/>
    </vehicle>
    <vehicle id="204" depart="916.22">
        <route edges="E0 E1 E2 E3 E4 E5 E6 E7 E8 9"/>
    </vehicle>
    <vehicle id="205" depart="920.71">
        <route edges="E30 C11 C0 C1 C2 E3 E14"/>
    </vehicle>
    <vehicle id="206" depart="925.20">
        <route edges="E1 E2 E3 E4 E5 E6 E7 E8 9 10 11 0 1 2 3 4 5"/>
    </vehicle>
    <vehicle id="207" depart="929.70">
        <route edges="4 5 6 7 8 9 10 11 0"/>
    </vehicle>
    <vehicle id="208" depart="934.19">
        <route edges="6 7 8 9 10 11 E0 E1 E2 E3 E4 E5 C6 C7 C8 C9 C10 C11 C0 C1 C2"/>
    </vehicle>
    <vehicle id="209" depart="938.68">
        <route edges="E4 E5 E6 E7 E8 9 10"/>
    </vehicle>
    <vehicle id="210" depart="943.17">
        <route edges="C10 C11 C0 C1 C2 E3 E4 E5 E6 E7 E8 9 10 11 E0"/>
    </vehicle>
    <vehicle id="211" depart="947.66">
        <route edges="4 5 6 7 8 9 10 11 0 1 2 3 E10"/>
    </vehicle>
    <vehicle id="212" depart="952.15">
        <route edges="C2 E3 E4 E5 E6 E7 E8 9 10 11 0 1 2 3 4 5 6"/>
    </vehicle>
    <vehicle id="213" depart="956.64">
        <route edges="E1 E2 E3 E4 E5 E6 E7 E8 9 10 11 0"/>
    </vehicle>
    <vehicle id="214" depart="961.13">
        <route edges="E2"/>
    </vehicle>
    <vehicle id="215" depart="965.63">
        <route edges="11 E0 E1 E2 E3 E4 E5 C6 C7 C8 C9 C10"/>
    </vehicle>
    <vehicle id="216" depart="970.12">
        <route edges="3 4 5 6 7 8 9 10 11 E0 E1 E2 E3 E4 E5 E6 E7"/>
    </vehicle>
    <vehicle id="217" depart="974.61">
        <route edges="C6 C7 C8 C9 C10 C11 C0 C1 C2 E3 E4 E5 E6 E7 E8 9 10 11 0 1"/>
    </vehicle>
    <vehicle id="218" depart="979.10">
        <route edges="6 7 8 9 10 11 E0 E1 E2 E3"/>
    </vehicle>
    <vehicle id="219" depart="983.59">
        <route edges="C11 C0 C1 C2 E3 E4 E5 C6 C7 C8 C9 E29"/>
    </vehicle>
    <vehicle id="220" depart="988.08">
        <route edges="E1 E2 E3 E4 E5 E6 E7 E8"/>
    </vehicle>
    <vehicle id="221" depart="992.57">
        <route edges="C9 C10 C11 C0 C1 C2 E3 E4 E5 E6 E7"/>
    </vehicle>
    <vehicle id="222" depart="997.06">
        <route edges="E6 E7 E8 9 10 11 E0 E1 E2 E3 E4 E5 C6 C7 C8 C9"/>
    </vehicle>
    <vehicle id="223" depart="1001.56">
        <route edges="E13 E5 C6"/>
    </vehicle>
    <vehicle id="224" depart="1006.05">
        <route edges="E4 E5 C6 C7"/>
    </vehicle>
    <vehicle id="225" depart="1010.54">
        <route edges="E6 E7 E8 9 10 11 E0 E1 E2 E3 E14"/>
    </vehicle>
    <vehicle id="226" depart="1015.03">
        <route edges="C2 E3 E4 E5 E6 E7 E8 9 10 11 0 1 2 3 4 5 6"/>
    </vehicle>
    <vehicle id="227" depart="1019.52">
        <route edges="6 7 8 9 10 11 E0"/>
    </vehicle>
    <vehicle id="228" depart="1024.01">
        <route edges="E3 E4 E5 C6"/>
    </vehicle>
    <vehicle id="229" depart="1028.50">
        <route edges="E0 E1 E2 E3 E4 E5 E6 E7 E8 9 10 11 0 1 2 3 4 5 6 7"/>
    </vehicle>
    <vehicle id="230" depart="1032.99">
        <route edges="10 11 0 1 2 3 4 5 6 7"/>
    </vehicle>
    <vehicle id="231" depart="1037.49">
        <route edges="7 8"/>
    </vehicle>
    <vehicle id="232" depart="1041.98">
        <route edges="C7 C8 C9 C10 C11 C0 C1 C2 E3 E4 E5 E6 E7 E8 9 10 11 0 1 2"/>
    </vehicle>
    <vehicle id="233" depart="1046.47">
        <route edges="5 6 7 8 9 10 11 0 1 2 3 E10"/>
    </vehicle>
    <vehicle id="234" depart="1050.96">
        <route edges="E13 E5 E6 E7 E8 9 10"/>
    </vehicle>
    <vehicle id="235" depart="1055.45">
        <route edges="C1 C2 E3 E4 E5 C6 C7"/>
    </vehicle>
    <vehicle id="236" depart="1059.94">
        <route edges="C10 C11 C0 C1 C2 E3 E4 E5 E6 E7 E8 9 10 11 0 1 2 3 4 5"/>
    </vehicle>
    <vehicle id="237" depart="1064.43">
        <route edges="C10 C11 C0 C1 C2 E3 E4 E5"/>
    </vehicle>
    <vehicle id="238" depart="1068.92">
        <route edges="C8 C9 C10 C11 C0 C1 C2 E3 E4 E5 E6 E7 E8 9 10 11 0 1 2 3 E10"/>
    </vehicle>
    <vehicle id="239" depart="1073.42">
        <route edges="E5 E6 E7 E8 9 10 11 E0 E1 E2"/>
    </vehicle>
    <vehicle id="240" depart="1077.91">
        <route edges="C0 C1 C2 E3 E4 E5 E6 E7 E8 9 10 11 0"/>
    </vehicle>
    <vehicle id="241" depart="1082.40">
        <route edges="9 10 11 E0 E1 E2 E3 E14"/>
    </vehicle>
    <vehicle id="242" depart="1086.89">
        <route edges="E5 E6 E7"/>
    </vehicle>
    <vehicle id="243" depart="1091.38">
        <route edges="C10 C11 C0 C1 C2 E3 E14"/>
    </vehicle>
    <vehicle id="244" depart="1095.87">
        <route edges="C7 C8 C9"/>
    </vehicle>
    <vehicle id="245" depart="1100.36">
        <route edges="5"/>
    </vehicle>
    <vehicle id="246" depart="1104.86">
        <route edges="C10 C11 C0 C1 C2 E3 E4 E5 E6 E7 E8 9 10 11 0"/>
    </vehicle>
    <vehicle id="247" depart="1109.35">
        <route edges="9 10 11 0 1 2 3 E10"/>
    </vehicle>
    <vehicle id="248" depart="1113.84">
        <route edges="C1 C2 E3 E4 E5 E6 E7 E8 9 10 11 0 1 2 3"/>
    </vehicle>
    <vehicle id="249" depart="1118.33">
        <route edges="C11 C0 C1 C2 E3 E4 E5 E6 E7 E8 9 10 11 0 1 2"/>
    </vehicle>
    <vehicle id="250" depart="1122.82">
        <route edges="E0 E1 E2 E3 E4 E5 E6 E7 E8 9 10 11 0"/>
    </vehicle>
    <vehicle id="251" depart="1127.31">
        <route edges="C1 C2 E3 E4 E5 C6 C7 C8"/>
    </vehicle>
    <vehicle id="252" depart="1131.80">
        <route edges="0 1 2 3 4 5 6 7 8 9 10 11 E0"/>
    </vehicle>
    <vehicle id="253" depart="1136.29">
        <route edges="2 3 4 5 6 7 8 9 10 11 E0 E1 E2 E3 E4 E5 C6 C7 C8 C9 C10 C11"/>
    </vehicle>
    <vehicle id="254" depart="1140.79">
        <route edges="1 2 3 4 5 6 7 8 9 10 11 E0 E1 E2 E3 E4 E5 C6 C7 C8 C9 C10 C11 C0"/>
    </vehicle>
    <vehicle id="255" depart="1145.28">
        <route edges="5 6 7 8 9"/>
    </vehicle>
    <vehicle id="256" depart="1149.77">
        <route edges="E2 E3 E4 E5 C6 C7 C8 C9 C10 C11 C0"/>
    </vehicle>
    <vehicle id="257" depart="1154.26">
        <route edges="E2 E3"/>
    </vehicle>
    <vehicle id="258" depart="1158.75">
        <route edges="6 7 8 9 10"/>
    </vehicle>
    <vehicle id="259" depart="1163.24">
        <route edges="0 1 2 3 4 5 6 7 8 9 10 11 E0 E1 E2 E3 E4 E5 C6 C7"/>
    </vehicle>
    <vehicle id="260" depart="1167.73">