<?xml version="1.0" encoding="UTF-8"?>

<!-- generated on 2023-11-07 14:18:52 by Eclipse SUMO netedit Version 1.14.1
<configuration xmlns:xsi="http://www.w3.org/2001/XMLSchema-instance" xsi:noNamespaceSchemaLocation="http://sumo.dlr.de/xsd/netconvertConfiguration.xsd">

    <output>
        <output-file value="C:\Users\Joseph\Documents\Dropbox\University\Masters\Dissertation\code\test.net.xml"/>
    </output>

    <processing>
        <offset.disable-normalization value="true"/>
    </processing>

    <junctions>
        <no-turnarounds value="true"/>
    </junctions>

</configuration>
-->

<net version="1.9" junctionCornerDetail="5" limitTurnSpeed="5.50" xmlns:xsi="http://www.w3.org/2001/XMLSchema-instance" xsi:noNamespaceSchemaLocation="http://sumo.dlr.de/xsd/net_file.xsd">

    <location netOffset="0.00,0.00" convBoundary="-200.00,200.00,400.00,200.00" origBoundary="10000000000.00,10000000000.00,-10000000000.00,-10000000000.00" projParameter="!"/>

    <edge id=":J10_0" function="internal">
        <lane id=":J10_0_0" index="0" disallow="pedestrian" speed="13.89" length="0.10" shape="300.00,198.40 300.00,198.40"/>
    </edge>
    <edge id=":J5_0" function="internal">
        <lane id=":J5_0_0" index="0" disallow="pedestrian" speed="13.89" length="0.10" shape="-100.00,198.40 -100.00,198.40"/>
    </edge>
    <edge id=":J6_0" function="internal">
        <lane id=":J6_0_0" index="0" disallow="pedestrian" speed="13.89" length="0.10" shape="0.00,198.40 0.00,198.40"/>
    </edge>
    <edge id=":J7_0" function="internal">
        <lane id=":J7_0_0" index="0" disallow="pedestrian" speed="13.89" length="0.10" shape="100.00,198.40 100.00,198.40"/>
    </edge>
    <edge id=":J8_0" function="internal">
        <lane id=":J8_0_0" index="0" disallow="pedestrian" speed="13.89" length="0.10" shape="200.00,198.40 200.00,198.40"/>
    </edge>

    <edge id="E2" from="J4" to="J5" priority="-1">
        <lane id="E2_0" index="0" allow="pedestrian" speed="13.89" length="100.00" width="2.00" shape="-200.00,195.80 -100.00,195.80"/>
        <lane id="E2_1" index="1" disallow="pedestrian" speed="13.89" length="100.00" shape="-200.00,198.40 -100.00,198.40"/>
    </edge>
    <edge id="E3" from="J5" to="J6" priority="-1">
        <lane id="E3_0" index="0" allow="pedestrian" speed="13.89" length="100.00" width="2.00" shape="-100.00,195.80 0.00,195.80"/>
        <lane id="E3_1" index="1" disallow="pedestrian" speed="13.89" length="100.00" shape="-100.00,198.40 0.00,198.40"/>
    </edge>
    <edge id="E4" from="J6" to="J7" priority="-1">
        <lane id="E4_0" index="0" allow="pedestrian" speed="13.89" length="100.00" width="2.00" shape="0.00,195.80 100.00,195.80"/>
        <lane id="E4_1" index="1" disallow="pedestrian" speed="13.89" length="100.00" shape="0.00,198.40 100.00,198.40"/>
    </edge>
    <edge id="E5" from="J7" to="J8" priority="-1">
        <lane id="E5_0" index="0" allow="pedestrian" speed="13.89" length="100.00" width="2.00" shape="100.00,195.80 200.00,195.80"/>
        <lane id="E5_1" index="1" disallow="pedestrian" speed="13.89" length="100.00" shape="100.00,198.40 200.00,198.40"/>
    </edge>
    <edge id="E6" from="J8" to="J10" priority="-1">
        <lane id="E6_0" index="0" allow="pedestrian" speed="13.89" length="100.00" width="2.00" shape="200.00,195.80 300.00,195.80"/>
        <lane id="E6_1" index="1" disallow="pedestrian" speed="13.89" length="100.00" shape="200.00,198.40 300.00,198.40"/>
    </edge>
    <edge id="E7" from="J10" to="J11" priority="-1">
        <lane id="E7_0" index="0" allow="pedestrian" speed="13.89" length="100.00" width="2.00" shape="300.00,195.80 400.00,195.80"/>
        <lane id="E7_1" index="1" disallow="pedestrian" speed="13.89" length="100.00" shape="300.00,198.40 400.00,198.40"/>
    </edge>

    <junction id="J10" type="priority" x="300.00" y="200.00" incLanes="E6_0 E6_1" intLanes=":J10_0_0" shape="300.00,200.00 300.00,194.80 300.00,200.00">
        <request index="0" response="0" foes="0" cont="0"/>
    </junction>
    <junction id="J11" type="dead_end" x="400.00" y="200.00" incLanes="E7_0 E7_1" intLanes="" shape="400.00,194.80 400.00,200.00"/>
    <junction id="J4" type="dead_end" x="-200.00" y="200.00" incLanes="" intLanes="" shape="-200.00,200.00 -200.00,194.80"/>
    <junction id="J5" type="priority" x="-100.00" y="200.00" incLanes="E2_0 E2_1" intLanes=":J5_0_0" shape="-100.00,200.00 -100.00,194.80 -100.00,200.00">
        <request index="0" response="0" foes="0" cont="0"/>
    </junction>
    <junction id="J6" type="priority" x="0.00" y="200.00" incLanes="E3_0 E3_1" intLanes=":J6_0_0" shape="0.00,200.00 0.00,194.80 0.00,200.00">
        <request index="0" response="0" foes="0" cont="0"/>
    </junction>
    <junction id="J7" type="priority" x="100.00" y="200.00" incLanes="E4_0 E4_1" intLanes=":J7_0_0" shape="100.00,200.00 100.00,194.80 100.00,200.00">
        <request index="0" response="0" foes="0" cont="0"/>
    </junction>
    <junction id="J8" type="priority" x="200.00" y="200.00" incLanes="E5_0 E5_1" intLanes=":J8_0_0" shape="200.00,200.00 200.00,194.80 200.00,200.00">
        <request index="0" response="0" foes="0" cont="0"/>
    </junction>

    <connection from="E2" to="E3" fromLane="1" toLane="1" via=":J5_0_0" dir="s" state="M"/>
    <connection from="E3" to="E4" fromLane="1" toLane="1" via=":J6_0_0" dir="s" state="M"/>
    <connection from="E4" to="E5" fromLane="1" toLane="1" via=":J7_0_0" dir="s" state="M"/>
    <connection from="E5" to="E6" fromLane="1" toLane="1" via=":J8_0_0" dir="s" state="M"/>
    <connection from="E6" to="E7" fromLane="1" toLane="1" via=":J10_0_0" dir="s" state="M"/>

    <connection from=":J10_0" to="E7" fromLane="0" toLane="1" dir="s" state="M"/>
    <connection from=":J5_0" to="E3" fromLane="0" toLane="1" dir="s" state="M"/>
    <connection from=":J6_0" to="E4" fromLane="0" toLane="1" dir="s" state="M"/>
    <connection from=":J7_0" to="E5" fromLane="0" toLane="1" dir="s" state="M"/>
    <connection from=":J8_0" to="E6" fromLane="0" toLane="1" dir="s" state="M"/>

</net>
